51
0 1
O         1.330959   -2.987735    0.882654
O         3.614854    0.919200    0.036811
O        -0.287392    1.556640    2.046041
O        -0.289088    1.131238   -1.290654
O        -4.321068   -0.127297   -0.870342
O        -2.488914   -3.171888    1.273833
N        -1.292647   -1.714995   -0.029309
N         1.810366   -1.769828   -0.975100
N         2.395919   -0.329406    1.510088
N         1.338441    2.444365    0.713203
N        -1.908240    2.632627   -0.714269
N        -2.843741    0.430170    0.782292
C        -0.473044   -2.713362   -0.707980
C         0.975510   -2.523771   -0.202489
C         3.171133   -1.419474   -0.537772
C         3.104646   -0.155720    0.364667
C         2.012186    0.791634    2.368452
C         0.894887    1.636321    1.708473
C         0.415379    3.166563   -0.150744
C        -0.621713    2.191327   -0.763072
C        -3.025542    1.856023   -1.235210
C        -3.467140    0.618497   -0.413759
C        -3.001855   -0.825521    1.499823
C        -2.242588   -2.036562    0.898750
C        -0.686602   -2.665181   -2.228701
C         4.089104   -1.213399   -1.741265
C         1.197280    3.857770   -1.278453
H        -1.160440   -0.756214   -0.301823
H         1.426495   -1.227526   -1.729308
H         1.973555   -1.233314    1.676092
H         2.285944    2.292714    0.389716
H        -2.115443    3.438858   -0.153751
H        -2.110352    1.046201    1.093733
H        -0.786763   -3.680051   -0.319882
H         3.521026   -2.258711    0.062699
H         2.887253    1.405114    2.580579
H         1.630682    0.395640    3.303619
H        -0.101545    3.921098    0.448220
H        -3.883841    2.514051   -1.352198
H        -2.771040    1.484900   -2.225524
H        -4.050958   -1.104283    1.544053
H        -2.650262   -0.685304    2.520086
H        -0.024224   -3.357620   -2.747039
H        -0.531306   -1.667306   -2.640193
H        -1.713808   -2.940967   -2.457749
H         4.119684   -2.115951   -2.348067
H         3.757263   -0.383577   -2.362890
H         5.100321   -0.982083   -1.415526
H         1.702037    3.120142   -1.899524
H         1.943536    4.537986   -0.871381
H         0.526843    4.433523   -1.913350
