51
0 1
O        -0.380933    3.779372   -1.488197
O        -1.836720    0.368960   -1.298267
O        -3.288603   -3.571251    0.383380
O        -0.542752   -1.551208    1.747073
O         4.836807   -2.135831   -0.134391
O         3.746264    1.720877   -1.133503
N         1.665361    2.388820   -0.504283
N        -1.957119    2.861636   -0.143586
N        -3.672462   -0.348642   -0.160610
N        -1.594024   -2.534930   -0.774918
N         1.514760   -2.073487    0.931432
N         3.869639   -0.311075    0.792954
C         0.451850    2.393261    0.307532
C        -0.659466    3.033336   -0.560436
C         0.601629    3.232472    1.602022
C        -2.516129    1.728068    0.590515
C        -2.645528    0.511686   -0.381824
C        -3.805929    2.169424    1.303299
C        -3.829696   -1.594711   -0.921747
C        -2.890631   -2.692423   -0.363748
C        -0.494609   -3.153922   -0.057588
C         0.144424   -2.161639    0.934657
C         2.435527   -2.129941   -0.228814
C         3.816335   -1.526914    0.140691
C         1.893905   -1.435736   -1.504956
C         2.868152    0.741473    0.896106
C         2.807373    1.655332   -0.354618
H         1.640543    3.014565   -1.296153
H        -2.601074    3.311849   -0.776233
H        -4.191027   -0.284467    0.695132
H        -1.384583   -1.685685   -1.277368
H         1.866354   -1.599690    1.745336
H         4.820680    0.016913    0.839802
H         0.179392    1.370670    0.558758
H        -0.319076    3.242002    2.182953
H         0.853994    4.261249    1.352423
H         1.388490    2.837983    2.240390
H        -1.803817    1.413810    1.353278
H        -4.176276    1.409805    1.989776
H        -3.609769    3.059820    1.896309
H        -4.602013    2.403447    0.596873
H        -3.631601   -1.382967   -1.970198
H        -4.855735   -1.933897   -0.821406
H         0.221697   -3.594227   -0.746223
H        -0.908253   -3.966742    0.537490
H         2.665850   -3.168045   -0.465609
H         2.707117   -1.266481   -2.207260
H         1.157616   -2.049735   -2.016538
H         1.431617   -0.476218   -1.293757
H         1.896996    0.323268    1.125931
H         3.134050    1.360576    1.754066
