51
0 1
O        -0.087647    1.271185   -1.934604
O        -5.143250   -0.842506    0.256994
O        -1.500482   -0.794776    2.057415
O         0.260801   -1.911627   -2.056542
O         4.369137   -1.141657    1.200147
O         1.194651    1.121097    2.725315
N        -0.314219    1.962979    1.282739
N        -1.951897    0.382536   -0.996083
N        -3.232510   -2.017431    0.238817
N         0.383399   -1.637877    1.109450
N         2.154229   -0.804502   -1.525814
N         3.162933    0.758657    1.010619
C        -0.917829    2.439661    0.022049
C        -0.956012    1.321201   -1.066898
C        -0.266265    3.715162   -0.527838
C        -3.229873    0.494720   -0.274582
C        -3.930847   -0.850834    0.079490
C        -4.213933    1.403644   -1.037622
C        -1.815664   -2.344384    0.220978
C        -0.979221   -1.508989    1.211450
C         1.166513   -2.408602    0.131472
C         1.173692   -1.717655   -1.256317
C         3.529545   -0.730003   -1.005848
C         3.685500   -0.398285    0.502953
C         4.331559    0.270009   -1.856258
C         2.071622    1.600203    0.538519
C         0.942652    1.541686    1.597549
H        -0.958592    1.726450    2.019082
H        -1.918549   -0.254077   -1.777164
H        -3.848702   -2.739553    0.568699
H         0.893195   -1.104958    1.795064
H         1.970240   -0.310828   -2.384697
H         3.293406    0.816868    2.009954
H        -1.933380    2.703480    0.303728
H         0.722116    3.537815   -0.937468
H        -0.198560    4.465814    0.256686
H        -0.872639    4.120602   -1.336272
H        -3.016233    0.920503    0.703737
H        -5.139384    1.525156   -0.485004
H        -4.459350    0.977340   -2.009419
H        -3.773065    2.384550   -1.209051
H        -1.396844   -2.289057   -0.778037
H        -1.733830   -3.392534    0.513729
H         0.744491   -3.401996   -0.005058
H         2.160328   -2.541466    0.547414
H         4.003686   -1.707962   -1.096784
H         5.357494    0.323186   -1.499560
H         3.909909    1.272655   -1.813903
H         4.357417   -0.045334   -2.899104
H         2.408459    2.636242    0.445009
H         1.720529    1.287645   -0.434047
