51
0 1
O         4.136913   -2.187696   -1.255112
O         3.617774    2.362959    1.809378
O         0.286040    3.865894   -0.515167
O        -1.947923    1.535003    1.136814
O        -3.771980   -2.426833   -0.046879
O        -1.082566   -0.893244   -1.510000
N         0.922552   -1.801614   -1.011004
N         3.463456   -0.453806    0.036564
N         2.642816    2.418866   -0.231060
N        -0.773833    2.058602   -1.451376
N        -3.735524    0.869317   -0.117344
N        -2.073538   -1.353205    1.059369
C         1.968609   -2.446898   -0.197017
C         3.301096   -1.701820   -0.505951
C         2.092386   -3.947080   -0.483261
C         2.667329    0.260549    1.053651
C         2.998366    1.782616    0.930985
C         2.956248   -0.223417    2.481826
C         1.668439    2.018359   -1.234145
C         0.316709    2.747296   -1.004442
C        -2.125527    2.458205   -1.089292
C        -2.597519    1.586451    0.092181
C        -4.201240   -0.174251    0.817183
C        -3.348918   -1.456239    0.559614
C        -5.694401   -0.432251    0.637188
C        -1.007647   -2.180598    0.538856
C        -0.393502   -1.561467   -0.739013
H         1.198071   -1.516079   -1.937763
H         4.360196   -0.053169   -0.188542
H         2.784557    3.415101   -0.171806
H        -0.672606    1.086630   -1.706628
H        -4.088044    0.804085   -1.056599
H        -1.805519   -0.443704    1.410574
H         1.714119   -2.300620    0.848765
H         1.147815   -4.448877   -0.281594
H         2.859571   -4.396486    0.144730
H         2.369785   -4.125352   -1.518367
H         1.610496    0.116901    0.828451
H         2.331699    0.305608    3.198616
H         3.992507   -0.040927    2.751230
H         2.757862   -1.289266    2.579279
H         1.560818    0.940783   -1.242805
H         2.042628    2.295365   -2.222933
H        -2.094891    3.497567   -0.771548
H        -2.785703    2.385156   -1.954312
H        -4.001485    0.199661    1.820641
H        -6.262395    0.483899    0.786469
H        -5.913572   -0.830405   -0.351789
H        -6.038822   -1.170403    1.358025
H        -0.271192   -2.360003    1.317770
H        -1.426028   -3.147972    0.261655
