40
0 1
C        -1.824890   -1.322622   -1.041261
C        -2.962422   -0.366856   -0.591403
C        -1.674971    2.140702    1.944800
C         1.524148    2.598189   -1.147276
C         3.549029   -1.672760   -0.831370
C        -1.767740   -2.654557    1.043540
C        -1.416164    1.077610    0.859211
C        -0.587921    1.728028   -0.293869
C         1.595583    1.190528    0.890038
C         2.757040    0.284454    0.384018
C         1.140798   -1.076491   -0.951717
C         0.343602   -1.765151    0.192370
N        -2.700702    0.584948    0.365470
N        -1.013776   -1.905228    0.028764
N         0.774507    1.839384   -0.135485
N         2.486415   -0.701640   -0.539664
O        -1.166682    2.173678   -1.277696
O         3.876761    0.472536    0.840488
O         0.934950   -2.181972    1.181403
O        -4.073084   -0.480108   -1.085955
H        -2.326928   -2.112547   -1.599356
H        -1.207181   -0.785654   -1.752156
H        -0.742819    2.483717    2.387280
H        -2.295360    1.731711    2.740452
H        -2.178966    3.009713    1.522387
H         1.880846    1.956107   -1.954144
H         0.887763    3.361957   -1.577254
H         2.388104    3.063183   -0.678412
H         3.521151   -1.945459   -1.885135
H         4.509514   -1.228761   -0.604305
H         3.426857   -2.571705   -0.226593
H        -2.524275   -3.266186    0.555457
H        -2.271453   -1.985980    1.742494
H        -1.090242   -3.289653    1.599927
H        -0.892829    0.248771    1.319965
H         0.984440    0.600585    1.562340
H         2.092439    1.946447    1.496993
H         0.630082   -0.217937   -1.364569
H         1.223422   -1.787726   -1.773424
H        -3.471779    1.227667    0.446050
