40
0 1
C         1.341272   -1.156648    0.655329
C         0.584590   -1.732009   -0.569553
C        -2.235874   -2.493054    1.398046
C        -3.649346    1.626162   -1.013732
C         1.546582    2.503039    1.403203
C         3.769818   -1.651403    0.496528
C        -1.696716   -1.319366    0.568396
C        -2.873652   -0.472464   -0.021700
C        -1.212387    1.169471   -0.953972
C        -0.508769    1.743114    0.307099
C         1.751936    1.394665   -0.796617
C         2.935732    0.463162   -0.394722
N        -0.782975   -1.791000   -0.485067
N         2.678260   -0.683717    0.322701
N        -2.563542    0.695703   -0.683592
N         0.864702    1.848821    0.278386
O        -4.028753   -0.842015    0.148809
O        -1.180663    2.101014    1.266731
O         4.060291    0.773051   -0.765465
O         1.187706   -2.125782   -1.557915
H         1.436814   -1.962667    1.383139
H         0.788020   -0.377814    1.161175
H        -2.828931   -3.170376    0.788155
H        -2.871831   -2.140257    2.205686
H        -1.404499   -3.050559    1.826892
H        -4.595935    1.176957   -0.744152
H        -3.523556    2.555077   -0.458593
H        -3.656254    1.848009   -2.081653
H         0.813385    2.998433    2.026334
H         2.261752    3.233486    1.027375
H         2.091405    1.778854    2.009718
H         3.658081   -2.481051   -0.200834
H         3.764927   -2.038443    1.514885
H         4.714379   -1.158226    0.308170
H        -1.143658   -0.660359    1.230652
H        -1.279347    1.978772   -1.681426
H        -0.648109    0.388003   -1.441485
H         2.238521    2.254031   -1.257134
H         1.191420    0.898400   -1.580193
H        -1.209468   -2.257090   -1.270827
