40
0 1
C         1.883189    1.436503    0.669653
C         0.356307    1.512497    0.946651
C        -2.644154    2.118673    0.886721
C        -3.040592   -2.169565   -0.768381
C         1.042076   -1.530513    2.461425
C         2.673915    1.794492   -1.679045
C        -1.886159    1.521775   -0.311968
C        -2.598119    0.227443   -0.831869
C        -1.397744   -1.218850    0.818875
C        -0.001374   -1.427283    0.170099
C         2.410446   -1.474491    0.365356
C         2.713333   -0.456807   -0.763433
N        -0.423972    1.412830   -0.161541
N         2.312765    0.859525   -0.602136
N        -2.418532   -0.974390   -0.183962
N         1.088391   -1.404083    1.002440
O        -3.372254    0.353867   -1.773121
O         0.124783   -1.527136   -1.044345
O         3.343858   -0.821462   -1.742070
O        -0.033284    1.684440    2.097229
H         2.265212    2.456435    0.736033
H         2.329386    0.917919    1.512418
H        -3.677815    2.266199    0.578178
H        -2.637620    1.487364    1.767620
H        -2.232721    3.083808    1.169352
H        -2.321620   -2.731051   -1.364267
H        -3.421748   -2.810436    0.025948
H        -3.861499   -1.866406   -1.404947
H         0.024796   -1.614813    2.819315
H         1.482514   -0.663694    2.953168
H         1.577690   -2.424667    2.783809
H         2.560101    1.309798   -2.642000
H         3.708644    2.133377   -1.594769
H         2.020233    2.662189   -1.638349
H        -2.038644    2.202355   -1.149149
H        -1.684849   -2.109082    1.379965
H        -1.362058   -0.410702    1.542301
H         2.574990   -2.449478   -0.089543
H         3.160389   -1.353312    1.147609
H         0.052485    1.136105   -1.002336
