40
0 1
C        -0.773005   -1.564795    0.855649
C        -0.003122   -2.426925   -0.174541
C         2.387944   -1.348621    1.919893
C         2.239174    2.131736   -1.234047
C        -2.137667    2.896834   -0.265440
C        -3.203139   -2.078192    0.693853
C         2.348010   -1.438731    0.383162
C         2.386671   -0.191028   -0.582236
C         1.276933    1.511902    0.964766
C        -0.030193    2.341269    0.774582
C        -1.067642    0.727348   -0.905822
C        -2.295506   -0.138932   -0.502423
N         1.373361   -2.426001   -0.138198
N        -2.090886   -1.174166    0.378660
N         1.988250    1.076923   -0.234912
N        -0.990740    1.977063   -0.135257
O         2.831474   -0.418216   -1.703677
O        -0.160789    3.340185    1.475317
O        -3.399028    0.142032   -0.954482
O        -0.611768   -3.146583   -0.951138
H        -0.223893   -0.690311    1.168823
H        -0.895773   -2.166646    1.756627
H         3.117293   -0.604611    2.236310
H         1.445958   -1.118049    2.405880
H         2.709568   -2.312050    2.312470
H         2.175662    3.100662   -0.747771
H         3.226874    2.009465   -1.665530
H         1.513910    2.100804   -2.046250
H        -2.674022    2.668486   -1.178517
H        -1.783057    3.922241   -0.286240
H        -2.830335    2.795762    0.568633
H        -3.024894   -3.060201    0.260712
H        -4.115166   -1.665842    0.282251
H        -3.313635   -2.177261    1.774259
H         3.307448   -1.881042    0.121875
H         1.059661    0.666574    1.599713
H         1.909579    2.176235    1.552847
H        -1.222364    0.967702   -1.956985
H        -0.128884    0.203637   -0.848565
H         1.736292   -2.982823   -0.895130
