87
0 1
N         2.737070   -2.067041   -0.591445
C         3.522102   -0.808418   -0.611194
C         3.237475   -0.035240   -1.920145
O         3.219439   -0.621714   -2.991842
C         4.987837   -1.298369   -0.557202
C         4.896963   -2.679335    0.118047
C         3.592321   -3.257637   -0.449360
N         3.009915    1.315434   -1.830950
C         3.243268    2.264122   -0.735298
C         2.108130    2.377322    0.336148
O         2.238823    3.179283    1.257548
C         3.543112    3.685473   -1.296951
C         2.342756    4.282380   -2.062765
C         4.837077    3.716383   -2.130880
N         1.086580    1.515140    0.158209
C        -0.048033    1.266622    1.031124
C        -1.227739    2.185455    0.627335
O        -1.081763    3.300445    0.159257
C         0.313876    1.304036    2.544387
C         1.293804    0.192477    2.873822
C         0.866415   -1.145515    2.878632
C         2.641765    0.464835    3.140141
C         1.761172   -2.181074    3.144954
C         3.538816   -0.572108    3.411169
C         3.102457   -1.898135    3.416968
N        -2.490456    1.622781    0.749369
C        -2.878823    0.415295    1.474114
C        -2.724686   -0.918122    0.700415
O        -2.668373   -1.979834    1.334732
C        -4.345658    0.535714    2.001409
C        -5.387751    0.673210    0.913865
C        -5.906131   -0.464310    0.276019
C        -5.835115    1.934852    0.495407
C        -6.827628   -0.341813   -0.763252
C        -6.751439    2.060868   -0.551311
C        -7.246482    0.922330   -1.187233
N        -2.725075   -0.852057   -0.644995
C        -2.831679   -2.035772   -1.517577
C        -1.427717   -2.649748   -1.827600
O        -0.965821   -2.695280   -2.955245
C        -3.571323   -1.664064   -2.801846
N        -0.796913   -3.165892   -0.724287
C         0.632594   -3.389728   -0.752770
C         1.398320   -2.040991   -0.769850
O         0.776106   -0.992096   -0.945340
H         3.267119   -0.234315    0.276244
H         5.375642   -1.399980   -1.570523
H         5.628196   -0.600247   -0.020757
H         4.810489   -2.568423    1.198110
H         5.757932   -3.313666   -0.087821
H         3.143976   -3.993211    0.215823
H         3.753158   -3.732141   -1.421337
H         2.800117    1.711352   -2.731545
H         4.125742    1.944571   -0.175939
H         3.696841    4.296815   -0.407187
H         2.145000    3.771134   -3.007135
H         1.427904    4.253728   -1.473922
H         2.539823    5.323734   -2.314763
H         4.760385    3.128675   -3.046014
H         5.687368    3.329620   -1.567942
H         5.078032    4.737498   -2.425536
H         1.139837    0.865035   -0.609008
H        -0.337894    0.245897    0.798972
H        -0.597720    1.175023    3.128852
H         0.714814    2.279167    2.795097
H        -0.170671   -1.384655    2.678525
H         2.986801    1.488721    3.128304
H         1.408353   -3.204648    3.157841
H         4.574623   -0.340845    3.624929
H         3.793051   -2.699761    3.644971
H        -3.226515    2.245954    0.460185
H        -2.260581    0.298907    2.359855
H        -4.379535    1.390684    2.677927
H        -4.533688   -0.352233    2.603110
H        -5.592325   -1.447204    0.601530
H        -5.483090    2.825307    1.002824
H        -7.223250   -1.231116   -1.236318
H        -7.081898    3.043952   -0.859607
H        -7.960028    1.016568   -1.994915
H        -2.687440    0.054295   -1.077730
H        -3.403965   -2.775170   -0.954536
H        -3.006335   -0.941911   -3.388463
H        -3.704299   -2.542029   -3.428412
H        -4.549648   -1.247824   -2.571608
H        -1.220414   -2.982264    0.173075
H         0.897709   -3.957621   -1.644163
H         0.910911   -3.988348    0.112473
