87
0 1
N         3.648395   -0.777827    1.036334
C         2.855838    0.453968    0.935382
C         3.709403    1.629153    0.403660
O         4.929962    1.573659    0.349392
C         2.403055    0.695472    2.403802
C         3.568548    0.118637    3.224048
C         3.951715   -1.143014    2.442188
N         3.034364    2.772102    0.045471
C         1.608452    2.936084   -0.260534
C         1.268451    2.078978   -1.511206
O         2.103069    1.958796   -2.413503
C         1.338761    4.455927   -0.506069
C        -0.082418    4.758591   -1.020011
C         1.633923    5.275060    0.766952
N         0.071907    1.434221   -1.577604
C        -1.027288    1.405979   -0.606735
C        -0.904169    0.245201    0.421548
O        -0.907391    0.486639    1.623707
C        -2.398385    1.410556   -1.346592
C        -3.526018    1.855672   -0.438744
C        -3.994300    3.175902   -0.495321
C        -4.085285    0.983572    0.503350
C        -4.998429    3.615845    0.367974
C        -5.088210    1.421626    1.367139
C        -5.548309    2.738081    1.304081
N        -0.825607   -1.010622   -0.109765
C        -0.774250   -2.200150    0.729909
C         0.644360   -2.765162    1.019270
O         0.963314   -2.919073    2.195533
C        -1.741020   -3.314263    0.241896
C        -3.182475   -2.861884    0.168795
C        -3.756960   -2.493640   -1.055508
C        -3.973331   -2.798836    1.324526
C        -5.087048   -2.075557   -1.125718
C        -5.305244   -2.387996    1.256858
C        -5.866432   -2.024091    0.030764
N         1.540529   -3.158005    0.045099
C         1.677754   -3.149999   -1.432322
C         1.530218   -1.737987   -2.052846
O         0.478010   -1.395881   -2.620685
C         0.809679   -4.172304   -2.179385
N         2.572191   -0.885267   -1.944107
C         3.926105   -1.127689   -1.434153
C         4.078883   -1.585851    0.038558
O         4.632236   -2.665373    0.268372
H         1.995936    0.288117    0.294254
H         1.484637    0.143765    2.589465
H         2.204526    1.744731    2.611454
H         4.404088    0.818671    3.248955
H         3.286332   -0.102695    4.251722
H         3.351141   -2.003240    2.735956
H         5.000427   -1.414163    2.534457
H         3.649275    3.425838   -0.411514
H         1.028961    2.612286    0.601390
H         2.036416    4.760779   -1.294467
H        -0.175030    5.821448   -1.239339
H        -0.321554    4.221668   -1.935368
H        -0.845601    4.523243   -0.278512
H         1.516256    6.340613    0.572422
H         0.942427    5.011356    1.568594
H         2.642437    5.117146    1.141337
H         0.002730    0.802333   -2.363670
H        -0.983239    2.305289   -0.007381
H        -2.310441    2.094225   -2.191277
H        -2.599083    0.422053   -1.762434
H        -3.576367    3.861031   -1.222967
H        -3.741831   -0.035651    0.565108
H        -5.351325    4.637191    0.305901
H        -5.508320    0.730396    2.085184
H        -6.327920    3.075944    1.974329
H        -0.724712   -1.132583   -1.105573
H        -1.101566   -1.878896    1.713351
H        -1.427365   -3.689897   -0.727043
H        -1.639203   -4.148754    0.937823
H        -3.163934   -2.544946   -1.960311
H        -3.546990   -3.080576    2.279300
H        -5.512209   -1.793798   -2.080015
H        -5.902898   -2.355864    2.158515
H        -6.897134   -1.700324   -0.021659
H         2.378437   -3.487031    0.497765
H         2.712518   -3.458144   -1.568714
H         0.832889   -5.130606   -1.665982
H        -0.218588   -3.847073   -2.285322
H         1.197722   -4.316380   -3.187149
H         2.421937    0.023203   -2.368999
H         4.473785   -0.199008   -1.569305
H         4.432929   -1.889320   -2.024138
