87
0 1
N        -3.205923    0.479966    2.117489
C        -3.054531    1.853116    1.646307
C        -1.899472    1.948802    0.605899
O        -1.236152    0.965191    0.301999
C        -2.726597    2.618621    2.952752
C        -1.856605    1.605008    3.719959
C        -2.525680    0.254263    3.412993
N        -1.685164    3.171361    0.062202
C        -0.590205    3.449070   -0.878224
C        -0.483624    2.258724   -1.884462
O        -1.508881    1.987588   -2.503311
C         0.651138    4.091292   -0.188399
C         0.444766    5.620382   -0.075684
C         0.992220    3.505221    1.193678
N         0.721965    1.726474   -2.344072
C         1.873978    0.993082   -1.716790
C         1.379401   -0.002532   -0.618883
O         1.433958    0.280593    0.566976
C         3.075377    1.825174   -1.219130
C         4.304998    0.936885   -1.107770
C         4.566043    0.196569    0.054918
C         5.169031    0.791716   -2.202898
C         5.655663   -0.672973    0.113474
C         6.263898   -0.071371   -2.142717
C         6.507870   -0.810758   -0.983524
N         0.878531   -1.155906   -1.144428
C         0.156876   -2.286589   -0.531972
C        -1.267243   -2.472048   -1.155937
O        -1.752584   -3.591541   -1.222057
C         0.103911   -2.306002    1.010285
C         1.448809   -2.506482    1.691150
C         1.840128   -1.674714    2.748799
C         2.317114   -3.538024    1.309387
C         3.063812   -1.854053    3.392930
C         3.547627   -3.716788    1.943759
C         3.929204   -2.872770    2.987641
N        -1.852120   -1.346040   -1.645250
C        -3.055685   -1.351854   -2.491417
C        -4.268227   -2.048409   -1.805464
O        -4.805923   -3.034396   -2.279549
C        -2.778428   -1.980015   -3.863937
N        -4.758191   -1.464705   -0.659098
C        -4.334433   -0.275371    0.038253
C        -3.646038   -0.596986    1.390221
O        -3.577761   -1.737835    1.821178
H        -3.973972    2.225812    1.189000
H        -3.653425    2.820473    3.491717
H        -2.232843    3.573289    2.781328
H        -1.805917    1.814330    4.786813
H        -0.837265    1.618506    3.334404
H        -3.261080   -0.025933    4.169864
H        -1.817182   -0.566756    3.335116
H        -2.287840    3.933744    0.310714
H        -0.985858    4.209319   -1.554961
H         1.492597    3.938188   -0.863446
H        -0.417845    5.867820    0.546938
H         1.310969    6.095771    0.383000
H         0.294158    6.088055   -1.049346
H         1.940747    3.910232    1.546254
H         0.240382    3.784146    1.931388
H         1.074304    2.424586    1.186701
H         0.461657    1.245135   -3.191194
H         2.259849    0.414058   -2.556118
H         2.855979    2.276034   -0.258751
H         3.251013    2.627535   -1.935696
H         3.908445    0.282606    0.906253
H         4.986885    1.360988   -3.107072
H         5.825719   -1.246506    1.014567
H         6.922674   -0.164439   -2.996624
H         7.353010   -1.485215   -0.936681
H         0.960608   -1.250734   -2.140644
H         0.672935   -3.190011   -0.857757
H        -0.380672   -1.405633    1.371153
H        -0.560071   -3.136243    1.259836
H         1.187810   -0.870061    3.057049
H         2.037633   -4.216873    0.513954
H         3.342862   -1.195806    4.206004
H         4.202414   -4.517776    1.625198
H         4.880939   -3.012374    3.484031
H        -1.433178   -0.458197   -1.442320
H        -3.298667   -0.299810   -2.643369
H        -3.654065   -1.905529   -4.504610
H        -1.954337   -1.455921   -4.346615
H        -2.529008   -3.031389   -3.765981
H        -5.432226   -2.042856   -0.187515
H        -3.686735    0.315651   -0.596601
H        -5.206932    0.355828    0.243040
