70
0 1
N        -2.495127    0.777745   -1.406101
C        -1.690175    1.989277   -1.765396
C        -0.139367    1.918594   -1.649890
O         0.451382    1.425235   -2.610242
C        -2.560343    3.125780   -1.192461
C        -4.009854    2.636221   -1.516307
C        -3.850772    1.122947   -1.882833
N         0.547926    2.533211   -0.649420
C         0.146097    2.887836    0.711369
C         1.295722    2.801797    1.748359
O         1.472375    3.753405    2.506401
N         2.044492    1.667989    1.833929
C         1.941094    0.394556    1.097336
C         2.794554    0.447344   -0.199669
O         3.656024    1.316355   -0.346079
C         2.557349   -0.611543    2.105205
C         3.694033    0.204558    2.747348
C         3.111671    1.623414    2.861547
N         2.610608   -0.529888   -1.133167
C         1.436312   -1.399189   -1.298897
C         1.576244   -2.739306   -0.547784
O         2.658406   -3.192883   -0.205770
C         1.410576   -1.671526   -2.831090
C         2.903552   -1.648097   -3.204504
C         3.455332   -0.501853   -2.348684
N         0.417680   -3.474345   -0.389428
C        -0.956838   -3.002427   -0.417311
C        -1.450808   -2.646008    1.010055
O        -0.861327   -3.093276    1.984184
N        -2.632312   -1.957499    1.136487
C        -3.246742   -1.052526    0.152894
C        -2.217634    0.029390   -0.301320
O        -1.168187    0.147730    0.324219
C        -4.433647   -0.401730    0.948034
C        -4.585895   -1.262869    2.215069
C        -3.154924   -1.717063    2.494681
H        -1.783559    2.044422   -2.850981
H        -2.326489    4.086740   -1.646860
H        -2.424727    3.230411   -0.119666
H        -4.670063    2.765149   -0.660331
H        -4.450915    3.187370   -2.345179
H        -3.886144    0.976192   -2.962658
H        -4.612655    0.490496   -1.449442
H         1.539527    2.554409   -0.832473
H        -0.657493    2.233061    1.033171
H        -0.198102    3.919049    0.768603
H         0.907276    0.157620    0.892641
H         2.899290   -1.526038    1.631672
H         1.798432   -0.882351    2.840968
H         4.568617    0.203691    2.098687
H         4.002628   -0.191937    3.713511
H         3.846046    2.405464    2.678669
H         2.671650    1.815639    3.841176
H         0.546939   -0.869887   -0.986330
H         0.918964   -2.610718   -3.079905
H         0.876602   -0.860901   -3.320675
H         3.379158   -2.590287   -2.933532
H         3.068679   -1.484054   -4.268402
H         4.503692   -0.622329   -2.083759
H         3.345027    0.464910   -2.841592
H         0.568375   -4.278335    0.198099
H        -1.064687   -2.195264   -1.130845
H        -1.598630   -3.806812   -0.788790
H        -3.611036   -1.609215   -0.712784
H        -5.349375   -0.358768    0.362749
H        -4.178733    0.622590    1.223059
H        -5.028407   -0.710878    3.042832
H        -5.221197   -2.126936    2.015585
H        -2.569229   -0.946298    3.004170
H        -3.084922   -2.624679    3.086299
