70
0 1
N         3.579546   -0.015970   -0.961204
C         3.633622    1.416419   -0.593351
C         2.319385    2.223655   -0.828030
O         2.336276    3.447540   -0.813977
C         4.770884    1.948794   -1.485770
C         4.573228    1.145066   -2.784042
C         4.217736   -0.262533   -2.276987
N         1.209641    1.467027   -1.032922
C        -0.111480    2.001645   -0.820555
C        -0.431155    2.136685    0.696177
O         0.455112    2.163418    1.541699
N        -1.743896    2.334543    1.023273
C        -2.910819    1.977728    0.205881
C        -3.148250    0.447658    0.289601
O        -3.118891   -0.102635    1.399890
C        -4.049603    2.753038    0.911549
C        -3.665290    2.705903    2.408105
C        -2.120394    2.642754    2.419925
N        -3.387739   -0.246651   -0.849973
C        -3.727030   -1.700457   -0.800161
C        -2.435234   -2.575194   -0.662817
O        -1.998476   -3.248869   -1.585103
C        -4.449782   -1.935606   -2.132027
C        -3.758970   -0.947826   -3.089721
C        -3.542604    0.301665   -2.220322
N        -1.900078   -2.534553    0.591279
C        -0.560924   -3.013711    0.871849
C         0.474648   -1.886653    0.657341
O         0.290730   -1.077875   -0.257111
N         1.555370   -1.825071    1.468954
C         2.615218   -0.821936    1.201249
C         3.219561   -1.089482   -0.200010
O         3.385810   -2.244096   -0.581585
C         3.670107   -1.090732    2.307956
C         2.897014   -1.864591    3.392603
C         1.929548   -2.727524    2.570946
H         3.869953    1.537327    0.463500
H         4.702424    3.025314   -1.612877
H         5.737489    1.718028   -1.034223
H         3.746741    1.565220   -3.359286
H         5.450072    1.142065   -3.429462
H         3.540536   -0.807072   -2.932657
H         5.101298   -0.888641   -2.140045
H         1.252186    0.468031   -0.904898
H        -0.816683    1.348652   -1.322612
H        -0.185118    2.993770   -1.266295
H        -2.788509    2.324094   -0.815228
H        -4.045742    3.778898    0.541373
H        -5.034942    2.335672    0.706760
H        -4.081093    1.818424    2.876025
H        -4.042998    3.572902    2.948191
H        -1.658739    3.588216    2.705951
H        -1.743862    1.879435    3.097770
H        -4.366465   -1.874831    0.064604
H        -4.365359   -2.966815   -2.461867
H        -5.508624   -1.693971   -2.023719
H        -4.341788   -0.726975   -3.982460
H        -2.801108   -1.357996   -3.403771
H        -4.404907    0.971915   -2.263543
H        -2.663971    0.865321   -2.527908
H        -2.270911   -1.821537    1.206435
H        -0.535760   -3.435510    1.873036
H        -0.324406   -3.814413    0.172213
H         2.179740    0.168879    1.299682
H         4.113562   -0.167251    2.675498
H         4.473784   -1.711873    1.912994
H         2.332620   -1.178708    4.026151
H         3.543587   -2.458486    4.037342
H         2.423298   -3.622432    2.182621
H         1.062787   -3.039390    3.148017
