84
0 1
O        -0.024614   -1.320047    1.271980
O        -2.077445   -1.191017   -1.295308
O        -3.042254    1.724887   -2.374205
O        -0.245568    1.179832   -0.846355
O         2.473126    2.219845   -0.995548
O         2.954269   -3.045471    0.546944
N        -2.838602   -2.079787    0.676561
N        -3.168878    1.226988   -0.148298
N        -0.847359    3.203710    0.055211
N         2.057499    1.078337    0.942417
N         3.833550   -1.013714    0.051515
N         0.479326   -2.530852   -0.574727
C        -0.324295   -2.204997    0.467015
C        -1.639325   -2.970499    0.782210
C        -2.145951   -4.287891    0.171535
C        -3.530458   -4.405592    0.848263
C        -4.013379   -2.927968    1.022170
C        -2.899918   -1.187751   -0.396417
C        -3.943271   -0.015607   -0.358040
C        -4.972439    0.091629    0.782151
C        -4.150423    0.650691    1.957005
C        -3.143731    1.611085    1.278362
C        -2.746706    1.987508   -1.218023
C        -2.001075    3.297589   -0.877929
C        -1.430034    4.056123   -2.082221
C        -0.511929    5.110386   -1.411585
C        -0.169907    4.526592    0.003264
C        -0.066413    2.051717   -0.014329
C         0.788090    1.751479    1.227155
C         1.170231    2.715601    2.360914
C         2.083190    1.798268    3.229633
C         2.611679    0.685470    2.249896
C         2.752791    1.321307   -0.205255
C         3.873184    0.323578   -0.578291
C         5.286366    0.858380   -0.220746
C         6.120105   -0.419727   -0.028643
C         5.133654   -1.382901    0.646581
C         2.833232   -1.961286   -0.012642
C         1.608115   -1.633621   -0.894276
C         1.897443   -1.949037   -2.384254
C         1.499322   -3.427317   -2.511803
C         0.234381   -3.512616   -1.646197
H        -1.525769   -3.151444    1.855651
H        -1.506437   -5.142735    0.387241
H        -2.260067   -4.205654   -0.906088
H        -4.234213   -4.997910    0.265204
H        -3.437882   -4.887721    1.821911
H        -4.350030   -2.741699    2.043114
H        -4.841587   -2.713866    0.353871
H        -4.395868    0.025141   -1.345623
H        -5.502746   -0.822578    1.024392
H        -5.728272    0.816297    0.472375
H        -3.615908   -0.151953    2.461030
H        -4.763116    1.157705    2.701334
H        -2.153714    1.511246    1.715543
H        -3.444186    2.653076    1.393956
H        -2.728825    3.946009   -0.371215
H        -0.862104    3.361128   -2.696666
H        -2.200267    4.498014   -2.710615
H         0.389867    5.288532   -1.994214
H        -1.020997    6.069222   -1.308423
H         0.898049    4.399079    0.132535
H        -0.539086    5.174641    0.799827
H         0.167102    0.970274    1.680743
H         1.735775    3.565840    1.984109
H         0.311395    3.098553    2.909493
H         1.516360    1.341457    4.040148
H         2.899493    2.356284    3.686015
H         2.242995   -0.298964    2.530441
H         3.693852    0.649000    2.225301
H         3.791600    0.238318   -1.663701
H         5.256954    1.434045    0.705920
H         5.663441    1.525113   -0.993061
H         6.428227   -0.819322   -0.996812
H         7.022511   -0.257160    0.559669
H         5.343219   -2.432573    0.459728
H         5.119070   -1.253181    1.733170
H         1.273868   -0.613571   -0.769230
H         2.931869   -1.762067   -2.667782
H         1.263659   -1.319434   -3.008951
H         1.316263   -3.739041   -3.539405
H         2.279770   -4.066935   -2.099889
H         0.092345   -4.512794   -1.245745
H        -0.650621   -3.228956   -2.217132
