84
0 1
O        -0.931930   -3.254570    1.651620
O        -3.094625    0.283116    1.682991
O        -1.144373    4.012254    0.685575
O         0.550384    1.177976   -1.262522
O         3.690284   -1.426243   -2.508450
O         0.852766   -1.169229    2.114374
N        -3.475526   -1.212848    0.007156
N        -2.685406    2.493630   -0.018141
N         0.813264    1.941524    0.856522
N         3.223118    0.569534   -1.560228
N         2.821864   -1.253757    1.013092
N        -0.719578   -1.838123   -0.184654
C        -1.431100   -2.543987    0.800522
C        -2.978006   -2.350338    0.807852
C        -3.725067   -3.584724    0.233794
C        -4.980753   -2.980238   -0.418114
C        -4.484207   -1.635658   -0.983759
C        -3.280639    0.073005    0.494813
C        -3.073126    1.177985   -0.578663
C        -4.323240    1.510427   -1.442570
C        -4.135772    2.988308   -1.814468
C        -3.546859    3.578683   -0.533211
C        -1.484546    2.836866    0.560543
C        -0.614691    1.724402    1.168380
C        -0.643188    1.811237    2.714905
C         0.501258    2.785431    3.049336
C         1.584018    2.426567    2.018406
C         1.290690    1.532612   -0.336870
C         2.834576    1.526484   -0.516677
C         3.307508    2.870890   -1.121585
C         2.974068    2.703904   -2.618537
C         3.217609    1.206378   -2.899798
C         3.492300   -0.766219   -1.487723
C         3.734362   -1.477738   -0.128251
C         5.122288   -1.102675    0.450584
C         4.995944   -1.491262    1.931618
C         3.567624   -1.051089    2.278085
C         1.454132   -1.440039    1.083436
C         0.765738   -1.888548   -0.210972
C         1.072631   -3.256968   -0.876707
C        -0.067134   -3.355412   -1.938621
C        -1.035889   -2.177221   -1.597811
H        -3.230601   -2.208652    1.857450
H        -3.120126   -4.103734   -0.510524
H        -3.948564   -4.310700    1.011782
H        -5.421181   -3.619328   -1.183122
H        -5.746247   -2.795073    0.337166
H        -5.291372   -0.915092   -1.060334
H        -4.063314   -1.759806   -1.987648
H        -2.264110    0.817239   -1.217726
H        -5.233037    1.396128   -0.849710
H        -4.408299    0.861725   -2.310782
H        -5.064039    3.468918   -2.122226
H        -3.422443    3.086704   -2.634958
H        -4.328042    3.817044    0.195130
H        -2.955837    4.475071   -0.686340
H        -0.876844    0.737268    0.823488
H        -0.444865    0.819995    3.114912
H        -1.608310    2.136328    3.090793
H         0.865618    2.678233    4.070559
H         0.178638    3.813917    2.907438
H         2.228276    1.635969    2.403180
H         2.208552    3.278257    1.751230
H         3.336449    1.304789    0.417981
H         4.383001    2.975170   -0.967839
H         2.821742    3.733526   -0.668660
H         3.584497    3.344594   -3.252782
H         1.932305    2.958308   -2.799312
H         2.446229    0.766930   -3.528247
H         4.176825    1.017823   -3.382169
H         3.753037   -2.533704   -0.392951
H         5.920876   -1.615626   -0.081521
H         5.305385   -0.031576    0.350655
H         5.098570   -2.571462    2.049910
H         5.745920   -1.019871    2.565481
H         3.541929   -0.003688    2.586859
H         3.107036   -1.624808    3.077863
H         1.024340   -1.123197   -0.941908
H         2.047434   -3.299879   -1.349567
H         1.006216   -4.053008   -0.139117
H        -0.582488   -4.313289   -1.872232
H         0.316326   -3.265770   -2.954256
H        -2.072207   -2.444224   -1.734029
H        -0.834655   -1.303980   -2.216465
