102
0 1
N         2.645896   -1.216437    0.441809
C         1.528454   -2.069336    0.856802
C         1.999884   -3.324882    1.606506
C         0.556913   -2.434208   -0.307199
O        -0.080481   -3.484033   -0.286069
N         0.417406   -1.485328   -1.267132
C        -0.431522   -1.698674   -2.430697
C        -1.835792   -1.112532   -2.197902
O        -1.988712    0.117729   -2.120791
N        -2.891020   -1.947791   -2.070199
C        -4.214468   -1.363609   -1.775438
C        -5.149948   -2.594413   -1.719099
C        -4.218330   -3.745827   -1.292343
C        -2.900821   -3.430725   -2.018139
C        -4.149661   -0.624803   -0.420633
O        -3.761783   -1.208794    0.596677
N        -4.572113    0.660067   -0.441468
C        -4.589987    1.591389    0.698878
C        -5.407626    1.061938    1.912557
C        -6.787269    0.588796    1.507864
C        -7.793676    1.509941    1.186330
C        -9.051015    1.077946    0.763549
C        -9.324463   -0.287744    0.658538
C        -8.333084   -1.214579    0.985552
C        -7.074746   -0.778958    1.405848
C        -3.171704    2.085112    1.122769
O        -2.918098    3.281493    1.185146
N        -2.284324    1.095759    1.413692
C        -0.915356    1.360445    1.861642
C        -0.850195    1.993186    3.259905
C        -0.082586    2.171491    0.829875
O         0.849174    2.891282    1.182204
N        -0.388613    1.962438   -0.473824
C         0.380702    2.627731   -1.510070
C         1.829448    2.102337   -1.540671
O         2.032573    0.887502   -1.691866
N         2.849692    2.978558   -1.438152
C         4.252748    2.504974   -1.463258
C         5.033662    3.798950   -1.768814
C         4.215098    4.909206   -1.076849
C         2.750880    4.440596   -1.204022
C         4.641330    1.926677   -0.074298
O         4.874295    2.673309    0.868675
N         4.697530    0.564180    0.099479
C         4.650272   -0.552138   -0.841527
C         6.028980   -1.277991   -0.921802
C         6.504000   -1.791239    0.421695
C         7.327441   -1.001925    1.239271
C         7.712108   -1.440199    2.508283
C         7.281192   -2.680772    2.979739
C         6.470118   -3.480478    2.171132
C         6.085076   -3.041361    0.904472
C         3.526598   -1.580479   -0.524881
O         3.467318   -2.643905   -1.133341
H         2.695972   -0.277394    0.790702
H         0.942760   -1.460235    1.549537
H         2.554980   -3.982782    0.946011
H         2.643296   -3.039072    2.436488
H         1.147533   -3.875711    1.993208
H         0.984464   -0.646378   -1.276265
H        -0.000440   -1.148126   -3.264590
H        -0.438617   -2.752787   -2.688272
H        -4.499610   -0.677091   -2.572810
H        -5.991464   -2.440707   -1.046747
H        -5.558549   -2.777270   -2.714362
H        -4.059882   -3.719977   -0.216800
H        -4.608739   -4.727678   -1.556146
H        -2.899166   -3.838571   -3.032976
H        -2.029331   -3.797805   -1.486318
H        -4.660818    1.086834   -1.344955
H        -5.086953    2.485057    0.330089
H        -4.864522    0.265176    2.411089
H        -5.473759    1.890056    2.620678
H        -7.595021    2.571684    1.272024
H        -9.816282    1.804849    0.523514
H       -10.300352   -0.624229    0.333833
H        -8.539051   -2.275423    0.920471
H        -6.310240   -1.501771    1.655473
H        -2.601764    0.138226    1.358980
H        -0.440608    0.376857    1.906316
H        -1.368546    1.359093    3.977238
H         0.182559    2.109142    3.575929
H        -1.315364    2.973838    3.259305
H        -1.091632    1.304909   -0.772854
H        -0.073592    2.368466   -2.463992
H         0.318263    3.705244   -1.387890
H         4.364168    1.772501   -2.256665
H         6.063741    3.756220   -1.422391
H         5.053097    3.947926   -2.849847
H         4.366815    5.886195   -1.533580
H         4.496809    4.974333   -0.031094
H         2.171534    4.632696   -0.304929
H         2.253472    4.915815   -2.051511
H         5.034632    0.330107    1.021746
H         4.406409   -0.171085   -1.826868
H         6.750747   -0.573051   -1.336287
H         5.924872   -2.094144   -1.633695
H         7.674784   -0.041350    0.879395
H         8.347805   -0.815016    3.121733
H         7.578555   -3.023316    3.962225
H         6.138927   -4.448652    2.523985
H         5.456696   -3.665456    0.285967
