92
0 1
N        -2.333041   -0.467847    0.887236
C        -2.633191   -0.702489   -0.522989
C        -1.776800    0.088897   -1.550286
O        -1.451304   -0.478338   -2.586196
C        -4.155812   -0.545053   -0.795275
C        -4.974959   -1.506058    0.040853
C        -4.970732   -2.877734   -0.251310
C        -5.677748   -3.776372    0.546267
C        -6.402147   -3.317148    1.649616
C        -6.417801   -1.954080    1.945445
C        -5.708704   -1.056042    1.144845
N        -1.345994    1.362225   -1.251869
C        -2.072643    2.356796   -0.444010
C        -1.419503    2.661851    0.931778
O        -2.093146    2.544413    1.948546
C        -2.452297    3.575099   -1.332551
C        -3.322839    4.697145   -0.701929
C        -4.605387    4.154307   -0.038255
C        -2.549187    5.635824    0.248507
N        -0.084525    2.996915    1.020135
C         0.799144    3.597492    0.022149
C        -1.209461   -0.779159    1.609861
O        -1.100851   -0.480619    2.790027
C         2.021623    2.772792   -0.463343
C        -0.033491   -1.467643    0.884286
N         2.069623    1.496722    0.017773
O         2.826097    3.316377   -1.202949
N        -0.377816   -2.692944    0.177022
C         2.720409    0.346472   -0.624961
C         0.226120   -3.275449   -0.909542
C         1.840641   -0.044569   -1.848501
C         4.193451    0.599538   -1.045381
C         1.560898   -2.685455   -1.464708
O        -0.247982   -4.283941   -1.416848
O         1.505165    0.833117   -2.638146
N         1.371068   -1.325257   -2.026593
C         5.088442    0.864367    0.149025
C         2.776470   -2.876506   -0.532600
C         5.607060   -0.204782    0.893809
C         5.393119    2.170835    0.553042
C         3.235015   -4.346569   -0.309828
C         6.402076    0.021109    2.017475
C         6.190539    2.399080    1.675890
C         2.340108   -5.138854    0.666239
C         4.695038   -4.345374    0.193838
C         6.695241    1.327306    2.414364
H        -3.004641    0.037718    1.441152
H        -2.390481   -1.730295   -0.771956
H        -4.479564    0.480361   -0.612727
H        -4.304439   -0.728949   -1.859713
H        -4.415980   -3.243652   -1.106774
H        -5.666842   -4.831178    0.304712
H        -6.950468   -4.014803    2.268609
H        -6.978569   -1.587696    2.795218
H        -5.732567    0.001514    1.379076
H        -0.713406    1.709875   -1.958189
H        -3.008093    1.905832   -0.144404
H        -3.001136    3.149412   -2.176100
H        -1.559177    4.024629   -1.769840
H        -3.633621    5.306920   -1.557275
H        -5.271074    4.971389    0.238618
H        -5.162441    3.500529   -0.711616
H        -4.384929    3.596437    0.870221
H        -2.285834    5.155303    1.187292
H        -3.157486    6.504658    0.499810
H        -1.633060    6.008631   -0.210796
H         0.183122    3.140562    1.981307
H         0.243131    3.840314   -0.875737
H         1.177863    4.548407    0.395530
H         0.367158   -0.763501    0.166666
H         0.716109   -1.633304    1.657971
H         1.287244    1.256979    0.602472
H        -1.143820   -3.237863    0.537140
H         2.726855   -0.431393    0.128724
H         4.532764   -0.294890   -1.571417
H         4.222672    1.414999   -1.759271
H         1.742603   -3.317904   -2.334052
H         0.712936   -1.324462   -2.791772
H         2.619718   -2.418688    0.443487
H         3.602872   -2.340422   -0.998615
H         5.397785   -1.222143    0.588587
H         5.003316    3.004013   -0.012988
H         3.217633   -4.856945   -1.278758
H         6.796160   -0.818830    2.575275
H         6.419266    3.415325    1.970875
H         1.341378   -5.306143    0.277499
H         2.251801   -4.625973    1.625949
H         2.771035   -6.119889    0.865790
H         5.368098   -3.849395   -0.506155
H         4.784395   -3.834847    1.154814
H         5.062673   -5.361370    0.334907
H         7.313847    1.506517    3.284136
