92
0 1
N         2.713914    1.211905    0.146302
C         3.310952    0.747681   -1.116972
C         4.703718    0.129574   -0.820366
O         5.736946    0.591397   -1.290288
C         3.370585    1.884240   -2.189706
C         3.529175    3.264233   -1.585452
C         2.411501    4.100913   -1.445696
C         2.515776    5.343077   -0.815763
C         3.746008    5.771076   -0.313153
C         4.868092    4.951346   -0.456470
C         4.762720    3.709845   -1.086228
N         4.732673   -0.939149    0.034384
C         3.614543   -1.779555    0.460273
C         3.008185   -2.561495   -0.740982
O         3.672879   -2.820528   -1.736639
C         4.041096   -2.747373    1.601983
C         4.747394   -4.077368    1.230633
C         6.077368   -3.897847    0.470781
C         4.960729   -4.908278    2.513705
N         1.714073   -2.969839   -0.606134
C         0.741727   -2.633955    0.420404
C         1.380365    1.467291    0.252419
O         0.548662    1.100009   -0.567853
C        -0.679534   -2.828078   -0.164138
C         0.984841    2.253944    1.539171
N        -1.583323   -1.973180    0.368848
O        -0.905759   -3.687614   -1.008737
N        -0.443247    2.499222    1.558529
C        -3.035562   -1.957472    0.120947
C        -1.295531    1.434927    1.679146
C        -3.557613   -0.718096    0.901551
C        -3.412469   -1.953529   -1.389316
C        -2.736406    1.675887    1.144763
O        -0.937173    0.364237    2.163432
O        -4.266742   -0.836600    1.884685
N        -3.099227    0.475782    0.379227
C        -4.897798   -1.736269   -1.586074
C        -3.688622    2.107379    2.284259
C        -5.396588   -0.514452   -2.055333
C        -5.811310   -2.751079   -1.266247
C        -5.014448    2.801946    1.863174
C        -6.769606   -0.305947   -2.194038
C        -7.184126   -2.545043   -1.398418
C        -4.772167    4.143587    1.139936
C        -5.974034    1.904579    1.058592
C        -7.668708   -1.319639   -1.860860
H         3.332448    1.714675    0.760456
H         2.659993   -0.035521   -1.499533
H         4.183603    1.658224   -2.875759
H         2.444061    1.845022   -2.758735
H         1.454141    3.774766   -1.832185
H         1.642231    5.976841   -0.726443
H         3.831396    6.733353    0.174542
H         5.828819    5.279116   -0.080410
H         5.631343    3.076000   -1.188645
H         5.649689   -1.347080    0.084928
H         2.866936   -1.115652    0.884213
H         3.139111   -2.996064    2.163366
H         4.665465   -2.176428    2.295356
H         4.071941   -4.643012    0.581820
H         6.781394   -3.278131    1.031758
H         6.563639   -4.860893    0.315373
H         5.925413   -3.461261   -0.512858
H         4.024796   -5.087240    3.044327
H         5.638306   -4.406249    3.207224
H         5.395541   -5.880592    2.283452
H         1.349830   -3.534074   -1.359608
H         0.828113   -3.284415    1.298298
H         0.868155   -1.610922    0.762735
H         1.269757    1.686469    2.422428
H         1.512560    3.205992    1.567445
H        -1.259856   -1.329330    1.077395
H        -0.753731    3.261555    0.982480
H        -3.504007   -2.821456    0.593076
H        -2.837120   -1.189407   -1.914028
H        -3.094330   -2.903231   -1.812059
H        -2.690104    2.484441    0.413106
H        -2.480502    0.363738   -0.407314
H        -3.126099    2.817586    2.896766
H        -3.896241    1.250609    2.916443
H        -4.707387    0.278704   -2.314515
H        -5.446552   -3.708347   -0.915230
H        -5.509652    3.038868    2.811799
H        -7.133629    0.644977   -2.560864
H        -7.872888   -3.340330   -1.144635
H        -4.344991    4.006516    0.144906
H        -4.101923    4.797288    1.701048
H        -5.708629    4.683499    1.000723
H        -6.935772    2.400916    0.923015
H        -6.152394    0.955785    1.556802
H        -5.585165    1.677316    0.068245
H        -8.733773   -1.159309   -1.964732
