68
0 1
O        -0.394990    0.866856    1.417722
O         3.051880    3.426428   -0.023402
O         4.114056    0.221403   -0.299841
O         0.210479   -3.883855    1.295723
O        -1.411686   -0.391026   -2.150564
O        -2.605410   -1.259123    2.869560
N         1.239302    2.250081   -0.822708
N         2.282676    0.215203    1.070117
N         1.912424   -2.494602    0.758492
N        -0.034230   -2.094727   -1.620645
N        -2.211588   -1.873745    0.749809
N        -2.289949    1.222345    0.280507
C        -0.946397    1.405089    0.454935
C        -0.252169    2.290377   -0.589433
C        -0.489921    3.827553   -0.462513
C         0.431548    4.401689   -1.578423
C         1.328938    3.192054   -1.975121
C         2.234935    2.538319    0.155058
C         2.337154    1.641157    1.409714
C         3.576455    1.986390    2.248558
C         3.167597   -0.356820    0.222516
C         2.939467   -1.867983   -0.079366
C         4.274126   -2.629383    0.017572
C         0.843748   -3.280783    0.433077
C         0.375882   -3.381292   -1.050086
C         1.336139   -4.134613   -1.989956
C        -1.241203   -1.444766   -1.545242
C        -2.361451   -2.113676   -0.701018
C        -3.743121   -1.834379   -1.301166
C        -2.597005   -0.931081    1.691286
C        -3.016980    0.519341    1.359478
C        -4.513999    0.691464    1.001219
C        -4.534747    1.927914    0.080083
C        -3.213950    1.826485   -0.701493
H         1.404021   -0.235689    1.254894
H         2.118780   -2.528461    1.745356
H         0.645357   -1.577588   -2.154388
H        -1.869427   -2.683455    1.242844
H        -0.668452    1.955981   -1.538277
H        -1.525690    4.138338   -0.574958
H        -0.172464    4.150938    0.529330
H         1.035031    5.226223   -1.206439
H        -0.145240    4.770515   -2.426479
H         0.935636    2.677665   -2.851952
H         2.358653    3.459305   -2.166071
H         1.451464    1.818135    2.010710
H         3.602371    1.346102    3.129095
H         3.534934    3.020755    2.580771
H         4.492850    1.851651    1.684922
H         2.600899   -1.892382   -1.109607
H         4.156110   -3.660759   -0.309648
H         5.028095   -2.142732   -0.593455
H         4.638042   -2.642714    1.045107
H        -0.505135   -4.009182   -0.966159
H         0.828681   -4.365783   -2.925085
H         1.642016   -5.073660   -1.532283
H         2.238725   -3.581429   -2.235428
H        -2.233334   -3.190605   -0.779757
H        -3.965634   -0.780880   -1.393241
H        -3.794240   -2.254249   -2.305052
H        -4.513229   -2.310795   -0.698204
H        -2.807632    1.032852    2.296640
H        -5.112553    0.817524    1.900480
H        -4.906495   -0.180480    0.486156
H        -5.404458    1.960122   -0.575076
H        -4.540339    2.842501    0.675503
H        -3.290933    1.190022   -1.580869
H        -2.871747    2.796520   -1.040033
