68
0 1
O         4.185414   -2.043451   -1.359517
O        -0.848048   -1.023616    1.284411
O        -3.493057   -3.904094   -0.261846
O        -4.455077    1.215727   -0.821279
O        -1.248891    3.925457   -1.190754
O         2.348973    1.527559   -2.214945
N         1.242078   -1.699235    0.845505
N        -1.591930   -2.876693   -0.849945
N        -3.371712   -0.538747    0.183595
N        -2.574315    2.912946    0.336722
N         0.873475    2.451019   -0.772991
N         3.577702   -0.096870   -0.384206
C         3.395404   -1.422574   -0.652552
C         2.353771   -2.312047    0.092627
C         3.098657   -3.086298    1.213337
C         2.996860   -2.128444    2.411582
C         1.568569   -1.572489    2.296450
C        -0.041119   -1.485402    0.461046
C        -0.504499   -1.889043   -0.971313
C        -0.792889   -0.681324   -1.875497
C        -2.954913   -2.853717   -0.581080
C        -3.789090   -1.562180   -0.787984
C        -5.288410   -1.871608   -0.675259
C        -3.700100    0.768341    0.036673
C        -3.036027    1.726825    1.071263
C        -4.058102    2.133045    2.145281
C        -1.369755    3.125437   -0.268555
C        -0.103003    2.430332    0.320572
C         0.338461    3.211689    1.578971
C         1.921813    1.627218   -1.069234
C         2.672178    0.951081    0.111798
C         3.683445    1.964578    0.709898
C         4.836435    1.949615   -0.315741
C         4.845482    0.510621   -0.876519
H        -1.253980   -3.806599   -0.658864
H        -2.600347   -0.771311    0.797432
H        -3.319486    3.365820   -0.172780
H         0.550262    2.997132   -1.560540
H         1.981750   -3.000833   -0.658349
H         4.113719   -3.343651    0.927164
H         2.563420   -4.014994    1.420189
H         3.733294   -1.330108    2.320885
H         3.165519   -2.618545    3.368639
H         0.844522   -2.155687    2.864906
H         1.472464   -0.542160    2.635399
H         0.289076   -2.440552   -1.467410
H        -1.467605    0.038924   -1.431216
H        -1.223184   -1.024062   -2.813752
H         0.136980   -0.172177   -2.112622
H        -3.589974   -1.178166   -1.792747
H        -5.583827   -2.613420   -1.413532
H        -5.857106   -0.963662   -0.848806
H        -5.531702   -2.264879    0.308090
H        -2.186747    1.253562    1.553426
H        -4.395837    1.257942    2.698363
H        -4.932998    2.595161    1.690430
H        -3.620604    2.839159    2.848806
H        -0.318910    1.402288    0.600123
H         0.592489    4.237174    1.318101
H        -0.460558    3.237283    2.318109
H         1.205008    2.752299    2.048021
H         1.985601    0.578437    0.858222
H         4.016200    1.597174    1.682256
H         3.258930    2.954202    0.855913
H         4.642391    2.665320   -1.111205
H         5.789039    2.218537    0.137284
H         5.676156   -0.086260   -0.502255
H         4.885452    0.487134   -1.961597
