68
0 1
O        -3.546485   -2.322812    0.597759
O        -0.475210   -0.860281   -1.515808
O         2.429337   -1.395292    0.153349
O         5.214302    0.692921    1.570843
O         1.468971    3.742392    0.703653
O        -3.136145    2.010535    1.715073
N        -0.656150   -2.115723    0.356486
N         2.010582   -2.008121   -1.984152
N         4.515696    0.315006   -0.521387
N         1.834147    1.502831    0.375733
N        -1.276352    2.591159    0.557599
N        -3.588830   -0.169097   -0.121484
C        -2.974915   -1.243897    0.445687
C        -1.525564   -1.067868    0.953040
C        -1.422092   -1.326850    2.470787
C        -1.169695   -2.839957    2.568550
C        -0.263796   -3.134104    1.360928
C        -0.158092   -1.873933   -0.876063
C         0.831966   -2.829843   -1.626603
C         1.270238   -4.195217   -1.081760
C         2.652455   -1.263455   -1.048027
C         3.690915   -0.243178   -1.593783
C         3.086404    0.825824   -2.535095
C         4.279252    0.738251    0.781434
C         2.985749    1.431122    1.275698
C         2.565036    0.854972    2.644186
C         1.112721    2.659942    0.253813
C        -0.240623    2.517114   -0.490514
C        -0.396372    3.621859   -1.546222
C        -2.465609    1.921114    0.695279
C        -2.968409    1.112947   -0.519564
C        -4.135139    1.878610   -1.200793
C        -5.043666    0.757219   -1.732668
C        -4.974088   -0.292390   -0.617474
H         2.116101   -1.763304   -2.950782
H         5.466419   -0.014359   -0.546497
H         1.372695    0.634803    0.171225
H        -1.071407    3.208294    1.327950
H        -1.111500   -0.102144    0.703663
H        -2.310044   -0.997368    3.004830
H        -0.574857   -0.765841    2.868136
H        -2.108241   -3.378884    2.470693
H        -0.698839   -3.135442    3.505326
H        -0.419953   -4.140608    0.987066
H         0.789890   -3.009607    1.608510
H         0.314784   -3.008573   -2.569505
H         1.852956   -4.115817   -0.170932
H         1.893311   -4.683768   -1.829706
H         0.415090   -4.843103   -0.903407
H         4.388456   -0.824299   -2.202137
H         3.880273    1.485564   -2.878077
H         2.341337    1.429265   -2.033341
H         2.624960    0.379176   -3.415032
H         3.290585    2.467012    1.422900
H         2.220987   -0.171728    2.540138
H         3.402144    0.866343    3.334987
H         1.759287    1.455088    3.062754
H        -0.295671    1.542616   -0.965895
H        -0.303725    4.604001   -1.089651
H        -1.367208    3.552175   -2.032846
H         0.372299    3.535027   -2.314598
H        -2.185469    0.908655   -1.243459
H        -3.776132    2.556670   -1.973129
H        -4.667545    2.470336   -0.456368
H        -4.643135    0.346527   -2.661514
H        -6.060089    1.094345   -1.932095
H        -5.679089   -0.074001    0.188754
H        -5.160543   -1.308849   -0.951482
