102
0 1
N        -3.318616   -0.141830    2.093591
C        -3.760846    1.259537    2.342630
C        -5.247825    1.515577    2.056124
C        -2.857131    2.361769    1.716841
O        -3.162227    2.970620    0.694995
N        -1.766197    2.680234    2.468445
C        -0.797154    3.700726    2.058289
C         0.318451    3.045283    1.219801
O         1.065716    2.242108    1.786674
N         0.392811    3.328905   -0.096305
C         1.308412    2.552150   -0.962065
C         1.187617    3.256402   -2.329974
C        -0.254296    3.792562   -2.321925
C        -0.438107    4.275583   -0.875301
C         2.749513    2.574480   -0.428966
O         3.245828    3.578486    0.057266
N         3.461743    1.401382   -0.551653
C         3.227315    0.284216   -1.460249
C         4.397906    0.192336   -2.504229
C         5.738989   -0.070105   -1.855868
C         6.589067    0.990586   -1.506627
C         7.786365    0.756833   -0.825877
C         8.157107   -0.545700   -0.490884
C         7.328885   -1.611707   -0.850646
C         6.132079   -1.377195   -1.526362
C         2.992995   -1.137357   -0.877481
O         2.736963   -2.031674   -1.686374
N         3.121988   -1.444372    0.444612
C         3.298276   -0.653967    1.681562
C         4.773899   -0.381192    2.002939
C         2.673323   -1.520775    2.813537
O         3.364670   -2.168206    3.589044
N         1.303602   -1.616984    2.869972
C         0.269896   -0.829142    2.197863
C        -0.050963   -1.145699    0.715810
O         0.023721   -0.234910   -0.120147
N        -0.514215   -2.373487    0.387820
C        -0.716785   -2.754661   -1.029322
C        -0.086664   -4.155470   -1.058949
C        -0.587602   -4.762635    0.265311
C        -0.527341   -3.578119    1.258066
C        -2.201799   -2.822935   -1.510214
O        -2.574215   -3.781074   -2.178948
N        -3.071935   -1.779278   -1.316440
C        -3.092155   -0.609275   -0.449125
C        -4.031300    0.434579   -1.095486
C        -5.501945    0.085641   -1.287339
C        -6.162690   -0.969033   -0.640808
C        -7.528492   -1.190898   -0.845154
C        -8.262231   -0.363822   -1.692239
C        -7.616873    0.691270   -2.342805
C        -6.255629    0.906768   -2.143963
C        -3.385439   -1.041489    1.024467
O        -3.516592   -2.226692    1.305559
H        -3.466272   -0.700782    2.919827
H        -3.627647    1.356775    3.420999
H        -5.535216    2.499845    2.423362
H        -5.490008    1.476426    1.002037
H        -5.856139    0.772888    2.569019
H        -1.462281    2.039675    3.179659
H        -0.334288    4.106631    2.955054
H        -1.337174    4.500663    1.566862
H         0.921255    1.540115   -0.997702
H         1.900367    4.080576   -2.385099
H         1.392570    2.581739   -3.159937
H        -0.960408    2.988484   -2.536108
H        -0.425151    4.585033   -3.049210
H        -0.063699    5.295020   -0.749724
H        -1.475999    4.237357   -0.562556
H         4.410557    1.511367   -0.233596
H         2.324344    0.479958   -2.028310
H         4.145438   -0.593633   -3.211679
H         4.415252    1.135288   -3.051654
H         6.317433    2.004447   -1.773843
H         8.425517    1.589786   -0.563622
H         9.083501   -0.729750    0.036961
H         7.614840   -2.626390   -0.605669
H         5.497594   -2.208300   -1.800762
H         3.080241   -2.442647    0.573090
H         2.752456    0.278024    1.574237
H         5.312376   -1.308393    2.174496
H         4.860013    0.225671    2.902847
H         5.264558    0.144630    1.191241
H         1.008084   -2.224539    3.614356
H        -0.645292   -0.955380    2.773249
H         0.521444    0.225460    2.218813
H        -0.191375   -2.039252   -1.657003
H         0.996837   -4.043838   -1.067050
H        -0.387393   -4.727193   -1.929657
H         0.010497   -5.605482    0.608409
H        -1.611699   -5.112299    0.147025
H        -1.382595   -3.549912    1.931165
H         0.383408   -3.613818    1.847152
H        -3.969274   -2.023326   -1.703112
H        -2.104953   -0.152097   -0.438056
H        -3.598549    0.648225   -2.074954
H        -3.950288    1.372958   -0.553979
H        -5.631514   -1.635458    0.020041
H        -8.011100   -2.016459   -0.338370
H        -9.318509   -0.538346   -1.848729
H        -8.171393    1.341370   -3.007210
H        -5.766490    1.726881   -2.655441
