102
0 1
N         1.813513   -0.965901    0.548915
C         1.922041   -0.267319    1.833460
C         2.059615   -1.205912    3.053851
C         0.600548    0.503394    2.003043
O        -0.464402   -0.059222    1.740185
N         0.616549    1.773268    2.477627
C         1.771565    2.597657    2.818756
C         2.717847    3.060992    1.676088
O         3.932636    2.991398    1.844655
N         2.183719    3.607972    0.548341
C         0.774186    3.762737    0.188304
C         0.825085    4.892862   -0.874146
C         2.143670    4.600666   -1.615229
C         3.092074    4.129363   -0.500149
C         0.225452    2.450987   -0.430288
O         0.984987    1.575188   -0.844951
N        -1.122080    2.317948   -0.551662
C        -2.214455    3.183786   -0.096996
C        -3.196547    3.508960   -1.274662
C        -3.752156    2.326939   -2.048537
C        -5.078489    1.902812   -1.865935
C        -5.555604    0.743745   -2.480401
C        -4.721636    0.002161   -3.315944
C        -3.419051    0.443853   -3.556701
C        -2.941052    1.598488   -2.936110
C        -2.759734    2.549061    1.227350
O        -2.185329    2.823590    2.284690
N        -3.775746    1.680074    1.065709
C        -4.307717    0.596246    1.934492
C        -3.692653    0.495310    3.330497
C        -4.193227   -0.679907    1.027764
O        -5.143702   -1.030655    0.339701
N        -2.948653   -1.209630    0.983727
C        -2.508076   -2.171147   -0.015095
C        -2.451075   -3.608035    0.552514
O        -3.438967   -4.084439    1.096486
N        -1.288180   -4.321085    0.403441
C         0.029021   -3.828164   -0.040561
C         0.957428   -5.066662    0.116176
C         0.278308   -5.882434    1.228760
C        -1.213206   -5.697380    0.931727
C         0.020491   -3.324309   -1.495568
O        -0.867216   -3.609472   -2.285269
N         1.035738   -2.455960   -1.869200
C         2.425251   -2.332925   -1.384503
C         3.115855   -1.234297   -2.259796
C         4.450527   -0.776361   -1.714770
C         4.522912    0.376203   -0.920164
C         5.730255    0.774712   -0.346037
C         6.888264    0.028731   -0.574693
C         6.830290   -1.113412   -1.376389
C         5.618248   -1.514626   -1.939074
C         2.604214   -1.978517    0.117541
O         3.442501   -2.570520    0.786435
H         1.232432   -0.510891   -0.134770
H         2.787190    0.395408    1.804987
H         1.218348   -1.893876    3.101805
H         2.978058   -1.775911    2.997083
H         2.065870   -0.616321    3.970466
H        -0.307749    2.173591    2.591919
H         2.417822    2.100546    3.538317
H         1.383293    3.485090    3.319012
H         0.181618    4.051323    1.051391
H        -0.043389    4.903691   -1.530400
H         0.867048    5.857962   -0.367218
H         1.996289    3.807242   -2.346655
H         2.528604    5.469039   -2.146426
H         3.784204    3.359824   -0.831150
H         3.688183    4.944258   -0.086294
H        -1.399982    1.412267   -0.895486
H        -1.796047    4.134639    0.213397
H        -2.641750    4.158957   -1.954191
H        -4.008229    4.114863   -0.869325
H        -5.740930    2.474167   -1.226725
H        -6.568889    0.418010   -2.293845
H        -5.083108   -0.905558   -3.778823
H        -2.772976   -0.111954   -4.223127
H        -1.936204    1.937790   -3.148846
H        -4.137984    1.596367    0.131753
H        -5.379508    0.770030    2.033257
H        -3.891363    1.390198    3.913574
H        -4.148508   -0.352504    3.840011
H        -2.619139    0.346304    3.318449
H        -2.206423   -0.785317    1.513572
H        -1.563344   -1.812323   -0.406236
H        -3.224042   -2.184029   -0.833684
H         0.355272   -3.027389    0.619620
H         0.967158   -5.639523   -0.813201
H         1.979815   -4.783438    0.349204
H         0.584400   -6.927874    1.233456
H         0.523922   -5.463063    2.206351
H        -1.568727   -6.409425    0.181339
H        -1.854946   -5.795486    1.802299
H         0.928856   -2.217617   -2.843644
H         2.967902   -3.271264   -1.509740
H         2.436285   -0.384869   -2.330653
H         3.228579   -1.635885   -3.270212
H         3.627185    0.954136   -0.746074
H         5.753151    1.654002    0.282588
H         7.827504    0.333299   -0.131581
H         7.725155   -1.694130   -1.559625
H         5.580174   -2.407652   -2.551105
