90
0 1
N        -1.447927    1.236186   -1.694614
C         0.005081    1.268044   -1.641594
C         0.497757    0.535249   -0.369245
O        -0.222190   -0.256827    0.225754
N         1.772871    0.767579    0.061797
C         2.738509    1.753681   -0.404369
C         3.519639    2.367525    0.783822
C         2.652861    3.021621    1.889362
C         1.691539    4.094328    1.341418
C         3.576486    3.602074    2.980553
C         3.736656    1.314297   -1.508376
O         4.097456    2.162425   -2.315926
N         4.314928    0.063949   -1.538730
C         3.992857   -1.237095   -0.946515
C         4.349563   -1.367421    0.554854
C         5.780079   -0.908108    0.934521
C         6.873564   -1.744444    0.240995
C         5.952093   -0.945585    2.466681
C         2.580819   -1.731224   -1.409082
O         2.083098   -1.301041   -2.441538
N         2.059076   -2.771606   -0.696398
C         0.810394   -3.419511   -1.071956
C        -0.265317   -3.191097    0.014514
O         0.016843   -3.252046    1.204248
N        -1.509806   -2.984327   -0.489495
C        -2.645194   -2.488025    0.296462
C        -3.719829   -3.597953    0.421719
C        -4.970790   -3.328853    1.301526
C        -6.021107   -2.411778    0.639772
C        -4.610599   -2.841194    2.719800
C        -3.132996   -1.245727   -0.479516
O        -3.306253   -1.314093   -1.699770
N        -3.339678   -0.109065    0.236170
C        -3.558902    1.192527   -0.432252
C        -4.479483    2.099550    0.395594
C        -5.230080    3.178404   -0.426370
C        -6.156260    3.990678    0.500998
C        -4.295136    4.114757   -1.218545
C        -2.135500    1.783512   -0.643645
O        -1.638743    2.599181    0.123355
H        -1.866255    0.436915   -2.141759
H         0.413214    0.760203   -2.512571
H         0.345538    2.298401   -1.675836
H         1.966643    0.286763    0.922938
H         2.198374    2.562366   -0.885066
H         4.198977    3.111890    0.364644
H         4.155513    1.603380    1.235448
H         2.043968    2.241450    2.358426
H         1.194254    4.617299    2.158027
H         0.902090    3.671550    0.723810
H         2.223782    4.844155    0.752854
H         2.998443    4.004082    3.812327
H         4.193321    4.413379    2.589950
H         4.251042    2.846624    3.386447
H         4.907667    0.010564   -2.349179
H         4.658491   -1.929615   -1.466053
H         3.631999   -0.827651    1.170491
H         4.251988   -2.417697    0.841351
H         5.898090    0.127800    0.607236
H         7.865855   -1.426050    0.559239
H         6.848240   -1.650309   -0.843869
H         6.780505   -2.805090    0.483035
H         5.212991   -0.323282    2.972686
H         5.846372   -1.958846    2.858722
H         6.937112   -0.584688    2.761734
H         2.348237   -2.934372    0.250848
H         0.521876   -3.035825   -2.044959
H         0.973907   -4.495946   -1.170846
H        -1.616853   -2.848553   -1.480030
H        -2.258858   -2.223167    1.276774
H        -4.038839   -3.874640   -0.585406
H        -3.194732   -4.465795    0.825615
H        -5.443471   -4.311167    1.413565
H        -5.686427   -1.379299    0.572281
H        -6.946376   -2.410668    1.216930
H        -6.265549   -2.744222   -0.368898
H        -5.489493   -2.835111    3.364517
H        -4.218442   -1.823762    2.716695
H        -3.862692   -3.479077    3.191645
H        -2.933989   -0.064668    1.155331
H        -4.019086    0.958597   -1.389967
H        -3.894799    2.575228    1.185282
H        -5.220254    1.464723    0.885280
H        -5.864570    2.651399   -1.149974
H        -5.581907    4.552730    1.239534
H        -6.849275    3.348332    1.045699
H        -6.751022    4.709119   -0.063298
H        -3.588854    4.622493   -0.563009
H        -3.713545    3.584203   -1.971205
H        -4.871367    4.876651   -1.744301
