66
0 1
C        -1.498043   -1.565762    0.284570
O        -0.494564   -2.179123   -0.074658
N        -1.112869   -0.109210    2.255782
C        -1.758104   -1.338824    1.791043
C        -3.373311    1.057314    0.167456
O        -3.565042    1.182044    1.378133
N        -2.344817   -1.041915   -0.653586
C        -3.614886   -0.287454   -0.575826
C        -4.825250   -1.043610    0.005537
C        -5.242715   -2.373993   -0.680112
C        -4.344244   -3.579409   -0.328559
C        -5.421354   -2.236880   -2.205463
C        -0.952849    3.487621   -0.786460
O        -0.918372    3.781049   -1.976186
N        -2.883294    2.047351   -0.615317
C        -2.311043    3.288344   -0.085875
C         1.768398    1.642924   -0.833973
O         0.901187    0.853000   -1.184978
N         0.138623    3.285850   -0.000355
C         1.454593    3.140405   -0.592816
C         3.189614   -0.450719    0.962139
O         3.934400   -0.121962    1.877698
N         3.082024    1.307296   -0.649582
C         3.513141   -0.098610   -0.515371
C         4.999017   -0.248546   -0.855563
C         5.552595   -1.687726   -0.710929
C         7.058986   -1.704059   -1.039748
C         4.791701   -2.712034   -1.577333
C         0.219243    0.191565    2.311109
O         0.602104    1.363115    2.328577
N         1.969561   -1.036740    1.125555
C         1.237369   -0.966593    2.381022
H        -1.715594    0.698702    2.215479
H        -1.366576   -2.209475    2.309304
H        -2.808990   -1.253275    2.037808
H        -1.968356   -1.167890   -1.578434
H        -3.843100   -0.055254   -1.615055
H        -4.687211   -1.210924    1.072163
H        -5.664450   -0.345934   -0.060051
H        -6.231619   -2.593924   -0.262988
H        -4.807516   -4.508814   -0.660682
H        -4.190603   -3.665298    0.747704
H        -3.364396   -3.525247   -0.796727
H        -5.878860   -3.132549   -2.624759
H        -6.061811   -1.393622   -2.467814
H        -4.469281   -2.103184   -2.721243
H        -2.699714    1.874313   -1.588810
H        -2.951716    4.137484   -0.325622
H        -2.252927    3.203193    0.994605
H         0.027178    2.850267    0.905470
H         1.453512    3.660610   -1.548617
H         2.198390    3.611971    0.048786
H         3.657524    1.964193   -0.149721
H         2.900374   -0.672454   -1.204586
H         5.573761    0.409434   -0.200337
H         5.152314    0.107073   -1.877951
H         5.440590   -1.979630    0.337195
H         7.487773   -2.693989   -0.882927
H         7.243921   -1.431022   -2.080705
H         7.614572   -1.004838   -0.414312
H         5.246248   -3.699919   -1.501105
H         4.802847   -2.430782   -2.632425
H         3.750584   -2.822103   -1.276798
H         1.406148   -1.236175    0.315633
H         0.780945   -1.927309    2.602717
H         1.946595   -0.730752    3.169546
