56
0 1
N        -0.243838    1.900812    0.235438
C         1.073555    1.905199    0.826475
C         2.104783    1.281135   -0.144436
O         1.823863    1.097171   -1.331967
N         3.299826    0.922295    0.388438
C         4.293381    0.122987   -0.375141
C         3.774496   -1.350074   -0.401045
C         5.608324    0.272818    0.424015
C         5.305039    1.319037    1.522833
C         3.792706    1.171679    1.750881
O         4.185284   -2.215137    0.360052
N         2.788150   -1.553794   -1.329472
C         1.887860   -2.675576   -1.193025
C         0.692460   -2.338224   -0.267055
O         0.699321   -1.401667    0.520658
N        -0.355996   -3.217648   -0.350199
C        -1.593656   -2.895602    0.331121
C        -2.354391   -1.752489   -0.387826
O        -2.086225   -1.463008   -1.557737
N        -3.323562   -1.129026    0.325249
C        -4.246865   -0.152738   -0.313588
C        -3.622041    1.278761   -0.349095
C        -5.488678   -0.218351    0.584892
C        -4.899396   -0.479005    1.984034
C        -3.737652   -1.452069    1.712285
O        -4.038497    2.193334    0.350403
N        -2.594548    1.409032   -1.235444
C        -1.899248    2.673560   -1.426613
C        -0.648496    2.937750   -0.557087
O        -0.093244    4.025245   -0.599573
H        -0.642176    0.994155    0.069504
H         1.340780    2.936082    1.052818
H         1.053370    1.344536    1.758773
H         4.358285    0.518980   -1.387375
H         5.863339   -0.687430    0.866428
H         6.435013    0.573864   -0.216240
H         5.520230    2.328406    1.169393
H         5.882336    1.157837    2.432201
H         3.566758    0.325189    2.406370
H         3.341791    2.062785    2.178762
H         2.391325   -0.712572   -1.730522
H         1.529897   -2.985949   -2.175758
H         2.436729   -3.512009   -0.762937
H        -0.432763   -3.775960   -1.181551
H        -1.360010   -2.626548    1.356741
H        -2.223673   -3.785364    0.365392
H        -4.444000   -0.479613   -1.334225
H        -6.072748    0.695845    0.540041
H        -6.122832   -1.048905    0.270084
H        -5.619838   -0.892301    2.687787
H        -4.523165    0.454257    2.398111
H        -2.912954   -1.318125    2.411611
H        -4.066037   -2.492656    1.778092
H        -2.298724    0.589908   -1.745696
H        -2.592533    3.490485   -1.246046
H        -1.575731    2.743104   -2.464246
