52
0 1
N        -0.724425   -2.468935   -0.902947
C         0.548581   -2.342344   -0.215449
C         1.571771   -1.561781   -1.085978
O         1.443257   -1.533485   -2.304856
N         2.648114   -1.007397   -0.452550
C         2.854374   -0.902823    1.007298
C         1.779393   -0.117321    1.792825
O         1.344395   -0.581352    2.842692
C         4.268037   -0.272595    1.129312
C         4.967631   -0.685727   -0.179761
C         3.844574   -0.599268   -1.222679
N         1.322740    1.083644    1.315295
C         1.736993    1.902497    0.165611
C         0.752108    3.079868   -0.027577
O         1.109890    4.232627    0.172200
N        -0.522643    2.750605   -0.379472
C        -1.074436    1.463904   -0.819566
C        -2.504948    1.381717   -0.229389
O        -3.254987    2.350091   -0.335644
C        -1.138011    1.361860   -2.357769
N        -2.886034    0.228824    0.379616
C        -2.070103   -0.974437    0.598082
C        -1.880029   -1.746810   -0.731340
O        -2.769754   -1.770218   -1.571072
C        -2.935113   -1.801164    1.587108
C        -4.378229   -1.427220    1.198425
C        -4.280029    0.065541    0.847606
H        -0.657966   -2.856666   -1.830946
H         0.972572   -3.339020   -0.057799
H         0.405942   -1.939030    0.776981
H         2.856912   -1.893571    1.463602
H         4.774900   -0.617109    2.027840
H         4.204018    0.812809    1.197619
H         5.333875   -1.711216   -0.108207
H         5.817436   -0.050351   -0.423472
H         3.734075    0.413649   -1.617249
H         3.976121   -1.260412   -2.074967
H         0.704646    1.531377    1.972705
H         1.782890    1.293125   -0.731456
H         2.714948    2.355058    0.320715
H        -1.161637    3.527045   -0.458073
H        -0.438897    0.676880   -0.436446
H        -1.581666    0.418791   -2.667552
H        -1.742784    2.170346   -2.763063
H        -0.138572    1.423519   -2.784378
H        -1.129692   -0.703808    1.066587
H        -2.728772   -2.868504    1.527300
H        -2.709581   -1.481170    2.605301
H        -4.691047   -1.996674    0.325882
H        -5.090679   -1.619217    1.999129
H        -4.454510    0.708367    1.713371
H        -4.974599    0.373913    0.069882
