92
0 1
O         1.727182    0.339923    2.672868
O         0.713535    3.936095    2.229150
O         0.465823   -3.084539    3.279792
N         2.165513   -2.283765    2.004253
N         2.474465    1.178461    0.696165
N        -0.059416    2.378187    0.739477
C         2.749048   -1.255924    1.135605
C         2.251191    0.164216    1.585149
C         2.630804   -1.545293   -0.385338
C         2.964799   -2.990881   -0.825142
C         2.795374   -3.110384   -2.353283
C         4.378058   -3.429984   -0.396259
C         2.356603    2.579904    1.111823
C         0.913207    3.020312    1.446164
C         2.882647    3.513830   -0.018904
C         4.247721    3.101687   -0.525170
C         4.386614    2.452546   -1.761429
C         5.634785    2.000284   -2.198968
C         6.765581    2.194861   -1.405906
C         6.641467    2.848265   -0.176251
C         5.394873    3.294785    0.259517
C        -1.410222    2.889549    0.656523
C         0.835701   -2.492286    2.276523
C        -1.655210    3.488641   -0.744016
C        -0.163012   -2.050159    1.196938
O        -0.852681    4.264996   -1.237830
N        -2.837819    3.181408   -1.385172
N        -1.510630   -2.169543    1.723439
C        -3.664395    1.984915   -1.215982
C        -2.669179   -1.963980    1.056454
C        -2.749950    0.714290   -1.145366
C        -4.718464    2.107437   -0.080240
O        -3.777228   -2.036318    1.585465
C        -2.572152   -1.640851   -0.454176
O        -1.582811    0.749195   -1.528905
N        -3.343535   -0.421973   -0.690465
C        -5.515521    3.433999   -0.066045
C        -3.102361   -2.846321   -1.280153
C        -6.443299    3.472754    1.165419
C        -6.318290    3.656909   -1.362790
C        -2.188316   -4.043235   -1.117377
C        -1.104278   -4.232589   -1.986716
C        -2.350506   -4.932413   -0.045161
C        -0.201938   -5.279365   -1.788202
C        -1.443116   -5.971580    0.162412
C        -0.364051   -6.147128   -0.706240
H         2.728858   -2.538691    2.797642
H         3.054782    0.998185   -0.103599
H         0.203765    1.696381    0.050939
H         3.813791   -1.265264    1.374767
H         3.319986   -0.875104   -0.906808
H         1.638459   -1.278537   -0.749385
H         2.245554   -3.666036   -0.354128
H         1.791979   -2.827732   -2.670711
H         2.970683   -4.131561   -2.690904
H         3.500117   -2.468689   -2.885668
H         5.142809   -2.754889   -0.786331
H         4.606013   -4.426964   -0.772700
H         4.489996   -3.469500    0.685955
H         2.937593    2.739635    2.020632
H         2.157319    3.531137   -0.832769
H         2.901395    4.522211    0.392782
H         3.515436    2.313891   -2.390405
H         5.720754    1.506562   -3.158290
H         7.733758    1.848487   -1.742562
H         7.515535    3.011249    0.440835
H         5.309241    3.798236    1.214399
H        -1.499108    3.694678    1.384060
H        -2.121397    2.120383    0.942444
H        -0.017769   -2.699357    0.332338
H         0.033439   -1.027430    0.881988
H        -2.863079    3.599731   -2.299539
H        -1.574365   -2.464551    2.686280
H        -4.213911    1.880159   -2.153114
H        -5.434289    1.285861   -0.177087
H        -4.238945    1.973798    0.890375
H        -1.563366   -1.420682   -0.778956
H        -4.238098   -0.388659   -0.234333
H        -4.794811    4.250327    0.029225
H        -3.158393   -2.539039   -2.324741
H        -4.116131   -3.077880   -0.952567
H        -5.885869    3.350875    2.094353
H        -6.975310    4.421958    1.226699
H        -7.194258    2.681217    1.129150
H        -7.021482    2.841051   -1.543254
H        -5.680646    3.742413   -2.242029
H        -6.899510    4.576955   -1.307102
H        -0.970327   -3.560562   -2.825784
H        -3.182568   -4.803013    0.633792
H         0.618903   -5.419108   -2.478324
H        -1.579725   -6.641748    1.000756
H         0.337294   -6.955487   -0.547029
