92
0 1
O        -2.585200   -1.734966    2.834721
O        -2.038527    2.266907    3.180158
O         0.483708   -4.382186    1.111773
N        -0.916309   -2.618971    1.070305
N        -3.122152    0.194880    1.803962
N        -0.981458    3.114096    1.364861
C        -1.735079   -1.514553    0.574721
C        -2.496354   -1.020297    1.840863
C        -2.690385   -1.843622   -0.614261
C        -3.707805   -3.018630   -0.549906
C        -4.717135   -2.934142    0.612065
C        -3.073355   -4.423465   -0.621107
C        -2.756214    1.384293    1.042250
C        -1.891475    2.286738    1.966007
C        -4.039436    2.154924    0.602751
C        -4.845748    1.391086   -0.423832
C        -4.392278    1.299102   -1.748948
C        -5.103754    0.556822   -2.691448
C        -6.280373   -0.102388   -2.325733
C        -6.741959   -0.010423   -1.012143
C        -6.027765    0.731725   -0.068935
C        -0.804369    3.365493   -0.064015
C         0.037784   -3.403667    0.514476
C        -0.035151    2.295638   -0.876749
C         0.557841   -3.138542   -0.913873
O        -0.607496    1.727931   -1.808689
N         1.275686    2.056503   -0.593996
N         0.851768   -1.773283   -1.380705
C         2.096388    2.460444    0.558238
C         1.916260   -0.938607   -1.107707
C         3.430676    1.645182    0.557325
C         2.439994    3.969256    0.637911
O         2.334515   -0.199072   -1.993699
C         2.427467   -0.783035    0.360202
O         4.506648    2.216670    0.686778
N         3.424369    0.277483    0.446008
C         3.102868    4.606237   -0.619936
C         3.084974   -2.060767    0.982678
C         2.080423    5.180053   -1.622992
C         4.100174    5.699710   -0.186492
C         4.406937   -2.442508    0.343275
C         5.613124   -2.233491    1.028408
C         4.463674   -2.994991   -0.945511
C         6.838825   -2.562759    0.445621
C         5.685153   -3.324367   -1.530296
C         6.878376   -3.108079   -0.837103
H        -1.213909   -2.934128    1.984606
H        -3.497746    0.421766    2.713393
H        -0.498241    3.712776    2.012970
H        -1.081597   -0.718207    0.217642
H        -2.063274   -1.985636   -1.496354
H        -3.248634   -0.933446   -0.820065
H        -4.284454   -2.892289   -1.473616
H        -5.529960   -3.643735    0.454828
H        -5.160690   -1.944215    0.689326
H        -4.261305   -3.173049    1.569127
H        -2.388855   -4.519610   -1.465179
H        -2.526949   -4.686141    0.281487
H        -3.846109   -5.180763   -0.757195
H        -2.209846    1.092106    0.153919
H        -4.631919    2.363975    1.494457
H        -3.750568    3.128095    0.203865
H        -3.466307    1.779862   -2.038629
H        -4.738441    0.492853   -3.708065
H        -6.831944   -0.677961   -3.057300
H        -7.652279   -0.516449   -0.718805
H        -6.389751    0.794740    0.949208
H        -1.762843    3.474250   -0.561890
H        -0.301658    4.321825   -0.165848
H         1.421414   -3.791776   -1.022090
H        -0.197201   -3.526024   -1.594933
H         1.720558    1.454801   -1.275674
H         0.558402   -1.606371   -2.330395
H         1.564607    2.183768    1.474572
H         3.105210    4.074291    1.492767
H         1.546418    4.537354    0.902857
H         1.556780   -0.530459    0.967859
H         4.373249   -0.050002    0.357332
H         3.675212    3.832381   -1.133361
H         2.399743   -2.899731    0.955765
H         3.237253   -1.844296    2.039511
H         1.466463    5.961019   -1.167532
H         1.414961    4.420218   -2.025926
H         2.587697    5.635593   -2.473791
H         3.605820    6.491938    0.380536
H         4.574858    6.168757   -1.048778
H         4.887028    5.281493    0.438917
H         5.592318   -1.815919    2.027209
H         3.553827   -3.174247   -1.500340
H         7.755689   -2.393008    0.994437
H         5.704640   -3.750333   -2.524764
H         7.825994   -3.363518   -1.292286
