92
0 1
O         2.362427   -3.396583    1.503678
O        -1.710813   -2.755452   -0.150708
O         4.927441    0.456277    0.599032
N         3.876906   -1.441112   -0.064361
N         0.689821   -2.060032    0.691033
N        -2.641918   -2.981388    1.906994
C         2.761968   -2.242149   -0.588452
C         1.911854   -2.655246    0.634076
C         3.272152   -3.484541   -1.346027
C         4.030061   -3.168297   -2.656804
C         4.802952   -4.411319   -3.142060
C         3.087652   -2.650164   -3.763928
C        -0.265224   -2.311404    1.748470
C        -1.596176   -2.726778    1.076235
C        -0.523246   -1.064382    2.681138
C         0.650677   -0.129324    2.907321
C         1.953087   -0.588667    3.147997
C         3.007538    0.311732    3.300837
C         2.777911    1.688229    3.245241
C         1.475775    2.157906    3.066525
C         0.422009    1.254748    2.899199
C        -4.022812   -3.016728    1.405212
C         4.076021   -0.087652   -0.093228
C        -4.555303   -1.577868    1.152281
C         3.212396    0.746406   -1.065534
O        -5.398197   -1.064393    1.873273
N        -3.948234   -0.962740    0.090896
N         1.928387    1.135019   -0.482737
C        -4.084785    0.463522   -0.203229
C         0.725508    0.866063   -1.043002
C        -2.778579    1.236822    0.131176
C        -4.552446    0.713445   -1.654489
O         0.554788    0.063812   -1.968220
C        -0.444032    1.692579   -0.494361
O        -2.752317    2.091184    1.012420
N        -1.671163    0.916288   -0.606392
C        -5.922555    0.092595   -2.020523
C        -0.546921    3.046761   -1.282625
C        -7.067294    0.607049   -1.124844
C        -6.228842    0.346287   -3.510824
C         0.638269    3.945155   -1.019631
C         0.736560    4.632500    0.199445
C         1.693760    4.049579   -1.934992
C         1.869401    5.388626    0.502740
C         2.826400    4.808783   -1.636313
C         2.920937    5.474941   -0.412632
H         4.424922   -1.904484    0.644528
H         0.331384   -1.622784   -0.139948
H        -2.527993   -2.824949    2.892333
H         2.174293   -1.623373   -1.255068
H         2.415225   -4.128405   -1.565142
H         3.905338   -4.058178   -0.666554
H         4.764569   -2.386402   -2.436704
H         4.127814   -5.243143   -3.352149
H         5.521408   -4.754545   -2.397263
H         5.355385   -4.203032   -4.058653
H         2.521028   -1.768224   -3.468528
H         2.360767   -3.413696   -4.047782
H         3.646867   -2.386541   -4.661858
H         0.133186   -3.132703    2.342609
H        -0.877363   -1.442434    3.645601
H        -1.348353   -0.480728    2.275052
H         2.158323   -1.647434    3.190964
H         4.012046   -0.060904    3.442766
H         3.602445    2.380896    3.344866
H         1.277504    3.221080    3.046724
H        -0.582945    1.629755    2.755787
H        -4.047465   -3.619812    0.500269
H        -4.655589   -3.484160    2.152132
H         3.017325    0.240446   -2.004680
H         3.784577    1.647869   -1.276258
H        -3.262506   -1.497726   -0.419196
H         1.967780    1.759832    0.304474
H        -4.813940    0.855497    0.496863
H        -4.586015    1.795381   -1.814155
H        -3.799382    0.334725   -2.352375
H        -0.289768    1.926109    0.552077
H        -1.708022    0.269304   -1.375641
H        -5.843842   -0.989872   -1.876346
H        -1.468577    3.525521   -0.955269
H        -0.651435    2.824481   -2.344907
H        -6.941736    0.317787   -0.083833
H        -7.143727    1.695662   -1.163627
H        -8.025211    0.204647   -1.454654
H        -5.440706   -0.038551   -4.159372
H        -6.333048    1.412490   -3.721093
H        -7.160313   -0.134754   -3.809191
H        -0.078079    4.571299    0.910348
H         1.631745    3.527165   -2.881454
H         1.928728    5.912492    1.447908
H         3.631395    4.879200   -2.356225
H         3.800698    6.058949   -0.177563
