42
0 1
N         2.080551   -0.952560   -1.102774
C         3.239990   -1.243630   -0.447498
O         3.694015   -2.369645   -0.308243
C         3.995423   -0.040431    0.169463
N         3.384398    1.273401    0.021365
C         2.290856    1.650193    0.745133
O         1.766883    0.947228    1.599271
C         1.792914    3.080735    0.435284
N         0.346809    3.142434    0.318404
C        -0.330191    2.340109   -0.550862
O         0.240418    1.508769   -1.253275
C        -1.853498    2.567168   -0.598015
N        -2.583401    1.445431   -0.045694
C        -3.320453    0.591608   -0.826437
O        -3.523864    0.751313   -2.019406
C        -3.883542   -0.615650   -0.030275
N        -2.829444   -1.500378    0.461717
C        -2.076112   -1.192740    1.549018
O        -2.301400   -0.232437    2.290675
C        -0.846530   -2.106250    1.740716
N         0.158750   -1.832571    0.714447
C         0.070922   -2.377960   -0.524387
O        -0.826802   -3.154207   -0.860851
C         1.173399   -1.999220   -1.532534
H         1.734668   -0.008555   -1.160082
H         4.107451   -0.263109    1.228533
H         4.995207   -0.013328   -0.257887
H         3.671691    1.840729   -0.754871
H         2.257137    3.474653   -0.471365
H         2.093775    3.727180    1.257628
H        -0.160222    3.733691    0.949105
H        -2.143222    2.664392   -1.641959
H        -2.131770    3.492248   -0.087122
H        -2.455166    1.206208    0.928327
H        -4.474608   -0.267296    0.815939
H        -4.530005   -1.176654   -0.696959
H        -2.479765   -2.219744   -0.158138
H        -1.121583   -3.158165    1.690986
H        -0.419633   -1.896528    2.715805
H         0.819742   -1.097573    0.903176
H         0.674611   -1.700172   -2.451946
H         1.744969   -2.900036   -1.744432
