42
0 1
N        -3.539931   -0.509990    0.959199
C        -2.747627   -1.624009    1.102911
O        -2.391388   -2.004882    2.210598
C        -2.316020   -2.381437   -0.181469
N        -1.309994   -1.678301   -0.977495
C        -0.012447   -1.419985   -0.635088
O         0.649272   -0.590169   -1.252889
C         0.608206   -2.262932    0.513463
N         1.940878   -1.789467    0.823934
C         2.950376   -1.976364   -0.090297
O         2.957355   -2.866636   -0.924606
C         4.067525   -0.905615   -0.013905
N         3.571961    0.373284   -0.545302
C         2.853227    1.223035    0.237560
O         2.759531    1.109420    1.456964
C         2.193801    2.421559   -0.498038
N         1.238022    3.085211    0.378324
C        -0.097298    2.805891    0.509734
O        -0.697879    3.023905    1.556844
C        -0.867272    2.325212   -0.733699
N        -2.104949    1.724919   -0.260476
C        -2.874334    0.928621   -1.029137
O        -2.715225    0.775156   -2.239191
C        -3.983442    0.151430   -0.264724
H        -3.745995   -0.066474    1.838538
H        -3.167825   -2.575874   -0.830978
H        -1.944119   -3.347520    0.148586
H        -1.645873   -1.106587   -1.737274
H        -0.008176   -2.231094    1.407644
H         0.659095   -3.302230    0.190861
H         1.992000   -0.958413    1.390905
H         4.409226   -0.738044    1.004209
H         4.906056   -1.239717   -0.617158
H         3.367153    0.372177   -1.530162
H         1.714223    2.094911   -1.414622
H         2.970490    3.132056   -0.788671
H         1.632835    3.336662    1.272008
H        -0.326618    1.596936   -1.330279
H        -1.059187    3.191491   -1.374171
H        -2.271696    1.844679    0.725830
H        -4.403620   -0.561380   -0.970651
H        -4.791373    0.832053    0.002494
