102
0 1
N         1.869629   -0.696577    1.474509
C         0.667920   -1.200775    2.173976
C         1.011074   -1.646185    3.600557
C        -0.052334   -2.343871    1.388662
O        -0.228708   -3.443582    1.896469
N        -0.546216   -1.973133    0.174820
C        -1.002620   -2.949743   -0.808070
C        -2.426188   -2.712518   -1.353287
O        -2.623025   -2.614886   -2.557788
N        -3.461139   -2.636124   -0.448950
C        -4.837525   -2.690042   -0.996583
C        -5.714338   -3.102061    0.214637
C        -4.730029   -3.829580    1.147760
C        -3.428796   -3.029689    0.975508
C        -5.408341   -1.464747   -1.739379
O        -6.294422   -1.666243   -2.561685
N        -4.987964   -0.186075   -1.479928
C        -4.162560    0.398869   -0.442300
C        -4.935469    0.584202    0.919979
C        -6.140675    1.490189    0.817071
C        -6.057535    2.838029    1.192228
C        -7.155827    3.688069    1.063093
C        -8.360443    3.202063    0.552856
C        -8.457687    1.860739    0.178537
C        -7.358996    1.011719    0.312261
C        -3.731437    1.792376   -0.958209
O        -4.303344    2.337897   -1.888414
N        -2.767900    2.471779   -0.241776
C        -1.725160    1.944597    0.638320
C        -1.522015    2.871604    1.846281
C        -0.471918    1.633671   -0.228491
O        -0.506949    0.718260   -1.049956
N         0.601484    2.445843   -0.069175
C         1.867822    2.189186   -0.730197
C         2.998583    2.396232    0.294020
O         2.737380    2.701206    1.464637
N         4.267595    2.243324   -0.149271
C         4.676713    1.786397   -1.494716
C         6.224006    1.940625   -1.472109
C         6.486663    2.993049   -0.381452
C         5.418852    2.679270    0.673585
C         4.279205    0.368301   -1.976444
O         4.224820    0.192528   -3.186173
N         4.038355   -0.670665   -1.110811
C         4.071401   -0.840165    0.344992
C         5.212600   -1.801923    0.797780
C         6.595674   -1.306723    0.454920
C         7.194278   -1.636213   -0.769592
C         8.459476   -1.148309   -1.101405
C         9.149176   -0.321483   -0.211843
C         8.569445    0.004658    1.016567
C         7.305403   -0.487630    1.345289
C         2.719680   -1.487858    0.759146
O         2.467064   -2.635271    0.417129
H         2.186670    0.214564    1.760479
H        -0.021094   -0.353402    2.219803
H         1.489961   -0.834981    4.148242
H         1.679588   -2.502682    3.582873
H         0.113967   -1.940549    4.140008
H        -0.329096   -1.063311   -0.202551
H        -0.923684   -3.937941   -0.359974
H        -0.348604   -2.929280   -1.677199
H        -4.868440   -3.471297   -1.755022
H        -6.554656   -3.714520   -0.103430
H        -6.135632   -2.230173    0.714739
H        -4.576311   -4.857108    0.812833
H        -5.066031   -3.869575    2.183462
H        -2.543145   -3.601935    1.225857
H        -3.424769   -2.143493    1.617988
H        -5.443167    0.497994   -2.065059
H        -3.295019   -0.227587   -0.268325
H        -4.244814    0.963052    1.673994
H        -5.231985   -0.405071    1.260496
H        -5.126140    3.226277    1.583684
H        -7.070287    4.725299    1.360612
H        -9.213812    3.859555    0.450688
H        -9.387340    1.472699   -0.216659
H        -7.451879   -0.023553    0.015947
H        -2.576075    3.374462   -0.648207
H        -2.049302    0.974501    1.004371
H        -1.269178    3.889296    1.547855
H        -2.440080    2.929600    2.426415
H        -0.735433    2.506574    2.506125
H         0.669186    3.039691    0.738908
H         2.006441    2.856785   -1.584962
H         1.853437    1.178361   -1.130667
H         4.253182    2.448619   -2.250384
H         6.689783    0.998873   -1.201212
H         6.601896    2.216951   -2.452931
H         6.342373    4.002878   -0.769551
H         7.496423    2.930917    0.019277
H         5.129754    3.525784    1.289655
H         5.741226    1.878916    1.341895
H         3.792221   -1.512469   -1.610166
H         4.216826    0.122381    0.813279
H         5.114439   -1.938153    1.876902
H         5.021646   -2.776912    0.351695
H         6.669568   -2.276937   -1.465528
H         8.903784   -1.414143   -2.051434
H        10.130451    0.055315   -0.467871
H         9.103368    0.629080    1.721114
H         6.871896   -0.247195    2.308593
