102
0 1
N        -1.172437    1.253893   -0.236818
C        -1.283813    2.083627    0.979697
C        -2.350267    1.680550    1.992864
C        -1.436095    3.551788    0.499763
O        -2.533258    4.018112    0.212825
N        -0.296943    4.296634    0.296374
C         1.079664    4.140351    0.761645
C         1.929899    3.120618   -0.034090
O         1.406312    2.116408   -0.521181
N         3.264109    3.307261   -0.086355
C         4.125798    2.177164   -0.505838
C         5.483617    2.875000   -0.739716
C         5.518476    4.002316    0.313727
C         4.042547    4.438321    0.465336
C         4.211552    1.195367    0.688272
O         4.291353    1.648030    1.831169
N         4.280207   -0.149960    0.479979
C         3.957885   -1.065376   -0.637411
C         5.189518   -1.319476   -1.542213
C         6.362095   -1.840157   -0.740234
C         7.460625   -1.023485   -0.446153
C         8.518581   -1.493862    0.334231
C         8.492036   -2.795098    0.837190
C         7.402755   -3.621720    0.550169
C         6.349502   -3.148187   -0.231690
C         2.736845   -0.639739   -1.492154
O         2.902231   -0.083727   -2.577171
N         1.477977   -0.945502   -1.063899
C         0.887722   -1.489822    0.176496
C         1.455568   -0.988367    1.513589
C         0.908603   -3.035185    0.161948
O         1.961041   -3.661993    0.245182
N        -0.292761   -3.685265    0.064114
C        -1.631601   -3.145840   -0.106737
C        -2.225887   -2.535056    1.196326
O        -1.519451   -2.286855    2.169064
N        -3.564149   -2.247733    1.191168
C        -4.554028   -2.624845    0.154935
C        -5.889471   -2.102646    0.735775
C        -5.687880   -2.239717    2.253082
C        -4.226366   -1.811966    2.447174
C        -4.308623   -2.158813   -1.294416
O        -4.543752   -2.950451   -2.201410
N        -3.884565   -0.889259   -1.574221
C        -3.472527    0.260739   -0.774123
C        -4.312741    1.513271   -1.193817
C        -5.774131    1.343538   -0.848999
C        -6.656898    0.685970   -1.717941
C        -7.983347    0.455645   -1.350684
C        -8.452766    0.882529   -0.106757
C        -7.589703    1.556179    0.760235
C        -6.264175    1.786759    0.388801
C        -1.962002    0.504297   -1.049735
O        -1.458148   -0.017728   -2.052916
H        -0.246830    1.386657   -0.630463
H        -0.320469    1.954361    1.469073
H        -2.232937    2.280549    2.894152
H        -3.359960    1.843614    1.634816
H        -2.221951    0.637536    2.271264
H        -0.512653    5.181834   -0.130061
H         1.525935    5.130735    0.757507
H         1.107617    3.811411    1.803793
H         3.740953    1.720826   -1.408856
H         5.499099    3.281412   -1.751651
H         6.324589    2.190481   -0.650925
H         6.157029    4.832523    0.015810
H         5.885663    3.619408    1.261281
H         3.793071    4.622543    1.508991
H         3.829219    5.345305   -0.105009
H         4.466110   -0.621243    1.348851
H         3.695602   -2.004233   -0.156621
H         5.446295   -0.403411   -2.070673
H         4.898883   -2.039362   -2.308934
H         7.492956   -0.015072   -0.838786
H         9.358986   -0.845660    0.547401
H         9.310111   -3.162394    1.442980
H         7.374557   -4.634361    0.931466
H         5.509271   -3.797216   -0.446326
H         0.784280   -0.619696   -1.721737
H        -0.131232   -1.134191    0.141842
H         0.739523   -1.235948    2.291729
H         2.392095   -1.466606    1.774725
H         1.599265    0.086843    1.495126
H        -0.206721   -4.684195    0.139729
H        -2.263575   -3.949460   -0.478761
H        -1.639311   -2.393332   -0.892758
H        -4.604047   -3.712379    0.071481
H        -6.042593   -1.060633    0.469542
H        -6.735219   -2.663238    0.344512
H        -6.380540   -1.626805    2.827639
H        -5.823545   -3.275817    2.568828
H        -4.142293   -0.730259    2.568012
H        -3.736707   -2.269148    3.302515
H        -3.657087   -0.795080   -2.551150
H        -3.640818    0.048300    0.272111
H        -4.177769    1.657514   -2.267595
H        -3.902832    2.397805   -0.712970
H        -6.304609    0.346516   -2.682273
H        -8.646939   -0.056915   -2.034831
H        -9.480723    0.702055    0.178977
H        -7.948069    1.908528    1.718941
H        -5.608164    2.327022    1.059102
