148
0 1
O         2.274985   -1.708716    4.197778
O         1.143476   -1.617389    0.952424
O        -2.332408   -1.713306   -0.646344
O        -3.866310   -1.985617    2.301434
O        -6.403930   -0.837770   -2.172649
O         4.558095    1.739423    0.719023
N         4.071150    1.117406    2.841427
N         1.274839    0.021512    3.129445
N        -0.725210   -2.707577    1.682516
N        -3.405631   -3.567754    0.140768
N        -5.418846   -0.727291    1.247280
N        -4.739899    0.551501   -1.522747
C         3.708669    0.164269    3.887281
C         3.849600    0.780560    5.312651
C         2.848346    1.913029    5.614301
C         5.301359    1.220722    5.587618
C         2.346953   -0.572853    3.728788
C         0.062003   -0.786875    2.973882
C        -1.035359    0.270047    2.725329
C        -0.303738    1.330040    1.888606
C         1.130728    1.340594    2.457710
C         0.231573   -1.742774    1.765458
C        -0.988331   -3.418946    0.430541
C        -2.295862   -2.821846   -0.128260
C        -4.729930   -2.951626    0.255108
C        -5.754934   -4.081285    0.615932
C        -5.592086   -4.640442    2.045968
C        -7.220421   -3.682687    0.365318
C        -4.632680   -1.834559    1.342560
C        -6.367558   -0.347533    0.166044
C        -6.991700    0.979099    0.673257
C        -6.851541    0.893649    2.203802
C        -5.496685    0.201389    2.398217
C        -5.807691   -0.246249   -1.274207
C        -3.799337    1.208669   -0.634194
C         4.382764    0.843505    1.544008
C        -3.003130    2.232283   -1.480493
C         4.506840   -0.641085    1.164090
O        -2.993993    2.177621   -2.703823
N        -2.317144    3.143945   -0.748514
N         4.982692   -0.756117   -0.197874
C        -1.442398    4.155008   -1.345470
C         4.896758   -1.829680   -1.046630
C        -2.249323    5.420810   -1.807678
C        -0.389714    4.495143   -0.269522
O         5.558662   -1.883980   -2.071277
C         3.915201   -2.965015   -0.645926
C        -1.352707    6.421023   -2.561607
C        -3.034024    6.113390   -0.679778
O        -0.751827    4.666779    0.902210
N         0.910798    4.639475   -0.636545
N         3.650306   -3.826743   -1.805368
C         4.588310   -3.921996    0.398302
C         1.527077    4.262007   -1.932719
C         1.901044    5.101189    0.361489
C         3.087400   -3.441838   -2.995103
C         4.508963   -5.019361   -1.756021
C         4.532267   -5.323049   -0.253495
C         2.979274    4.783248   -1.809246
C         1.385076    2.747345   -2.228464
C         3.270524    4.849271   -0.292558
O         3.296332   -4.057708   -4.035172
C         2.101645   -2.235177   -2.974722
O         0.715517    2.365838   -3.180145
N         1.951732    1.888196   -1.325628
N         2.871637   -1.052365   -3.387455
C         0.888004   -2.514234   -3.914324
C         1.960911    0.474291   -1.654968
C         2.933253    0.191143   -2.828212
C         0.156337   -3.814373   -3.520369
C        -0.105644   -1.336879   -3.943506
O         3.715243    1.045647   -3.223153
H         3.967657    2.100245    3.027031
H        -1.513801   -2.639424    2.307979
H        -3.265646   -4.396609    0.688568
H        -4.456972    0.593771   -2.492138
H         4.423921   -0.656006    3.852271
H         3.617129   -0.048856    5.984292
H         2.956021    2.242845    6.646725
H         1.817209    1.591664    5.484070
H         3.006382    2.796236    4.992909
H         5.416014    1.529969    6.625852
H         6.007950    0.411048    5.406897
H         5.604535    2.062531    4.965270
H        -0.116259   -1.372212    3.873025
H        -1.352755    0.678523    3.686375
H        -1.916648   -0.141578    2.242031
H        -0.752344    2.317280    1.944552
H        -0.283152    1.041548    0.839127
H         1.849722    1.475384    1.659670
H         1.264587    2.148284    3.176383
H        -1.047328   -4.494098    0.606789
H        -0.163417   -3.231089   -0.245673
H        -4.996666   -2.543496   -0.714347
H        -5.521544   -4.883335   -0.092010
H        -4.577206   -4.957713    2.282438
H        -6.235310   -5.509514    2.178603
H        -5.871270   -3.905533    2.798912
H        -7.575597   -2.962064    1.101640
H        -7.863002   -4.558413    0.450558
H        -7.365524   -3.262011   -0.627740
H        -7.152667   -1.090672    0.091549
H        -6.454726    1.842705    0.284403
H        -8.021091    1.074614    0.334179
H        -7.647387    0.276926    2.625198
H        -6.899462    1.865925    2.691992
H        -5.412493   -0.353625    3.328079
H        -4.666471    0.912220    2.376292
H        -4.299458    1.723971    0.182599
H        -3.099043    0.493535   -0.200681
H         3.529277   -1.106585    1.278521
H         5.174636   -1.142822    1.873553
H        -2.420807    3.192470    0.249786
H         5.574287   -0.012056   -0.529704
H        -1.009210    3.706595   -2.231750
H        -2.971225    5.021681   -2.524809
H         2.986018   -2.563412   -0.252735
H        -0.581357    6.846276   -1.918491
H        -1.944976    7.252538   -2.942698
H        -0.862453    5.959946   -3.418258
H        -2.379242    6.573330    0.057389
H        -3.684280    5.418339   -0.150971
H        -3.669882    6.895654   -1.094870
H         5.624490   -3.628863    0.569105
H         4.081592   -3.882148    1.360717
H         1.021263    4.753990   -2.757323
H         1.768740    4.565205    1.299550
H         1.726318    6.157602    0.576528
H         4.081962   -5.811863   -2.363599
H         5.504929   -4.797790   -2.148118
H         3.614506   -5.838354    0.032861
H         5.369774   -5.954939    0.039173
H         3.031925    5.779946   -2.248060
H         3.679640    4.151934   -2.352771
H         3.707511    3.923484    0.072949
H         3.983243    5.636688   -0.052039
H         1.728256   -2.071939   -1.966776
H         2.748293    2.200581   -0.798044
H         3.558522   -1.205559   -4.108030
H         1.300678   -2.652408   -4.916134
H         2.254425   -0.080512   -0.771647
H         0.949657    0.170560   -1.897663
H        -0.692511   -3.985809   -4.181733
H        -0.244155   -3.754077   -2.507505
H         0.798404   -4.688781   -3.582066
H        -0.627982   -1.224872   -2.991946
H         0.364861   -0.387108   -4.183458
H        -0.871246   -1.513954   -4.698936
