148
0 1
O         6.380016    0.743275   -1.994706
O         3.563722   -0.471311   -0.763577
O         4.196829   -5.973927   -2.024614
O         0.804370   -3.504636    0.034802
O        -1.475716   -4.592123    2.548566
O         3.907622    4.442931   -0.696267
N         4.480346    2.365057    0.115615
N         6.096035   -0.108797    0.082827
N         3.982898   -2.325436   -1.975762
N         3.106062   -4.552313   -0.590499
N        -0.348529   -5.444314    0.029299
N        -2.031120   -2.651803    1.502470
C         5.906923    2.376686   -0.280119
C         6.884557    2.929781    0.796376
C         6.588785    4.405252    1.126386
C         8.340567    2.749832    0.318228
C         6.195322    0.947383   -0.800865
C         5.789746   -1.425515   -0.486231
C         5.877184   -2.370834    0.732870
C         5.365017   -1.486701    1.882863
C         5.956914   -0.103584    1.558018
C         4.351467   -1.358048   -1.081751
C         4.610417   -3.603950   -2.280539
C         3.943194   -4.847695   -1.621145
C         2.152756   -5.497630   -0.019312
C         2.567552   -5.979381    1.413383
C         3.935640   -6.685701    1.368351
C         2.542392   -4.849134    2.460043
C         0.803980   -4.741899    0.005959
C        -1.624499   -4.702315    0.141304
C        -2.696749   -5.819006    0.059281
C        -1.959633   -7.085217    0.536610
C        -0.547192   -6.904831   -0.038605
C        -1.672096   -3.975817    1.508403
C        -1.889282   -1.725843    0.374607
C         3.597165    3.337844   -0.276339
C        -3.058624   -1.694969   -0.618901
C         2.124585    2.890413   -0.104071
O        -2.892057   -1.279552   -1.764030
N        -4.266373   -2.095979   -0.132861
N         1.221304    4.009560   -0.198682
C        -5.509739   -1.695768   -0.791982
C         0.415042    4.216172   -1.264410
C        -6.285640   -2.886000   -1.445918
C        -6.371893   -0.947854    0.247213
O         0.291056    3.443255   -2.211076
C        -0.305992    5.570279   -1.289004
C        -5.497110   -3.420359   -2.659184
C        -6.628818   -4.028301   -0.472638
O        -6.724741   -1.495563    1.287876
N        -6.800793    0.315730   -0.077719
N        -0.451153    6.278611    0.005041
C         0.556065    6.543957   -2.148061
C        -6.100109    1.264901   -0.956386
C        -7.718697    1.014607    0.842054
C        -1.193653    5.983765    1.125351
C         0.178242    7.629513   -0.049075
C         0.263033    7.923830   -1.548297
C        -6.790856    2.634349   -0.659959
C        -4.592559    1.352084   -0.599838
C        -8.112357    2.253106    0.032275
O        -1.206885    6.770933    2.070106
C        -2.123940    4.726477    1.275091
O        -4.166923    0.960730    0.477048
N        -3.811372    1.976351   -1.530704
N        -2.274602    3.806564    0.131917
C        -1.925546    4.105471    2.702021
C        -2.344582    1.929650   -1.416073
C        -1.797398    2.543684   -0.106354
C        -0.488092    3.684567    3.063423
C        -2.956859    3.000823    2.994689
O        -0.972271    1.945032    0.565248
H         4.074726    1.442073    0.178132
H         3.048907   -2.187977   -2.329435
H         2.838449   -3.593041   -0.440496
H        -2.022549   -2.248681    2.424981
H         6.002096    3.012912   -1.159156
H         6.760166    2.365093    1.720916
H         5.585935    4.539232    1.523282
H         6.673571    5.039221    0.244921
H         7.292740    4.772893    1.873915
H         8.599333    1.702840    0.162057
H         9.040498    3.153217    1.049323
H         8.516474    3.270103   -0.624174
H         6.503920   -1.675045   -1.266433
H         6.918515   -2.654330    0.893858
H         5.304696   -3.286701    0.613306
H         5.664871   -1.845115    2.866170
H         4.276409   -1.441202    1.867036
H         5.318441    0.699636    1.914112
H         6.937333    0.022621    2.023799
H         4.596101   -3.778458   -3.355621
H         5.658134   -3.588149   -1.994409
H         2.112458   -6.364096   -0.678305
H         1.823159   -6.719792    1.720083
H         3.964501   -7.475285    0.619556
H         4.737432   -5.988082    1.130947
H         4.165423   -7.130046    2.336612
H         1.544907   -4.441241    2.603541
H         3.204464   -4.028887    2.184646
H         2.880391   -5.225936    3.424889
H        -1.713379   -4.013329   -0.692705
H        -3.026267   -5.927949   -0.974767
H        -3.576730   -5.592040    0.656212
H        -1.913498   -7.097834    1.623376
H        -2.430050   -8.007709    0.199536
H         0.204867   -7.441489    0.532001
H        -0.488830   -7.248767   -1.075900
H        -1.806526   -0.715794    0.773188
H        -0.970826   -1.916209   -0.171145
H         1.866848    2.181638   -0.888188
H         1.984873    2.372393    0.844634
H        -4.330013   -2.324086    0.844623
H         1.303670    4.738842    0.484181
H        -5.215423   -1.041159   -1.605969
H        -7.225172   -2.458892   -1.816810
H        -1.275087    5.414260   -1.759474
H        -6.057466   -4.206208   -3.165717
H        -5.283076   -2.639930   -3.388099
H        -4.540797   -3.842807   -2.353105
H        -7.232102   -3.691741    0.363824
H        -7.174401   -4.815071   -0.993941
H        -5.723765   -4.479622   -0.066598
H         1.611871    6.296829   -2.026541
H         0.319686    6.450055   -3.205378
H        -6.229850    0.990250   -2.006512
H        -8.553212    0.367765    1.099068
H        -7.208345    1.278558    1.772454
H        -0.422407    8.338032    0.511421
H         1.167143    7.605575    0.415596
H         1.027128    8.662534   -1.786326
H        -0.692721    8.309938   -1.909484
H        -6.922122    3.227560   -1.563263
H        -6.172220    3.217675    0.023206
H        -8.873638    1.994548   -0.705581
H        -8.510236    3.056006    0.651176
H        -3.104782    5.205776    1.335477
H        -4.183107    2.074157   -2.459520
H        -2.995444    4.087719   -0.508317
H        -2.163836    4.947976    3.351598
H        -1.990471    0.905561   -1.471167
H        -1.921364    2.475938   -2.254306
H         0.209875    4.511371    2.939062
H        -0.151242    2.844506    2.468861
H        -0.446905    3.400421    4.115616
H        -3.972672    3.321660    2.758336
H        -2.938385    2.753625    4.056466
H        -2.767980    2.088301    2.440803
