50
0 1
O         3.190357   -0.783096   -1.958584
O         1.680440    3.870877   -0.183389
O         5.306479    1.289008    0.320102
O         0.917631   -2.034876    2.060987
N        -0.347505    2.837250   -0.214580
N         2.760389   -1.079597    1.206992
N         3.083269    1.713399    0.349950
C         4.153592    0.877022    0.381575
C         0.994994    2.858044   -0.072223
C         3.951219   -0.674200    0.438382
C         1.715045   -1.959844    1.124849
C         1.648632    1.489045    0.263866
C         1.469978   -2.818800   -0.135471
C         4.155556   -1.214898   -0.990311
O        -5.870474   -0.321481   -0.767486
O        -1.031271   -1.124959   -2.176726
O        -2.641056   -0.224925    2.212984
O        -2.956014    3.353469   -0.214193
N         0.738594   -2.097488   -1.170295
N        -3.637649    1.198720   -0.019291
N        -1.810332   -1.858517    0.889294
C        -2.604397   -0.763454    1.116647
C        -0.603436   -1.887698   -1.310930
C        -3.488932   -0.252876   -0.056156
C        -2.681242    2.163509   -0.106504
C        -1.576730   -2.604994   -0.347545
C        -1.218269    1.686471   -0.050443
C        -4.897833   -0.882947    0.110192
H         3.354295    0.142980   -2.183341
H        -0.821834    3.716339   -0.362509
H         2.730507   -0.625958    2.107516
H         3.318324    2.696183    0.266191
H         4.826568   -1.020172    0.993657
H         1.395216    0.757260   -0.500294
H         1.229278    1.120520    1.201882
H         0.906209   -3.681516    0.203885
H         2.385856   -3.203415   -0.571615
H         4.150425   -2.301413   -1.006168
H         5.161634   -0.904180   -1.276087
H        -5.631722   -0.532172   -1.681397
H         1.319532   -1.534680   -1.776211
H        -4.578289    1.544502   -0.114539
H        -1.158101   -2.045427    1.638194
H        -3.072150   -0.553304   -1.017679
H        -2.504913   -2.750053   -0.892040
H        -1.229477   -3.596988   -0.067333
H        -1.051456    1.206143    0.912537
H        -1.046978    0.944151   -0.831682
H        -4.814336   -1.969344   -0.002183
H        -5.253758   -0.684248    1.119595
