50
0 1
O        -4.171934   -3.020342    0.204125
O         2.143637   -3.178827    1.847379
O        -2.035606   -1.913046   -2.109700
O        -4.502171    1.643770   -0.677038
N         2.139041   -1.806564    0.027955
N        -3.285274   -0.258914   -0.469229
N        -0.500429   -2.640751   -0.613242
C        -1.641564   -1.962596   -0.953917
C         1.558826   -2.670723    0.899989
C        -2.429329   -1.247339    0.177824
C        -3.668717    0.999266   -0.063327
C         0.051794   -2.955949    0.698386
C        -2.870491    1.610439    1.110298
C        -3.294316   -2.252841    1.004192
O         3.087781    1.658490    2.301577
O        -1.697499    4.255605    0.915446
O         1.341073    0.282924   -1.779364
O         4.937486   -0.623772   -1.553430
N        -1.550298    1.984169    0.594044
N         3.743032    0.975889   -0.500501
N         0.420016    2.288785   -1.322317
C         1.366879    1.320312   -1.119902
C        -1.166321    3.286329    0.407419
C         2.485066    1.603292   -0.081947
C         4.077897   -0.362267   -0.729797
C         0.071403    3.459832   -0.522237
C         3.547532   -1.460813    0.208085
C         2.085688    1.264439    1.381159
H        -4.830932   -2.432066   -0.189815
H         1.635441   -1.386140   -0.737589
H        -3.607739   -0.530922   -1.385560
H        -0.112916   -3.147349   -1.393468
H        -1.739404   -0.757093    0.863108
H        -0.100805   -4.006571    0.949226
H        -0.463674   -2.385959    1.465331
H        -3.373751    2.512753    1.438299
H        -2.775519    0.943454    1.968168
H        -2.658499   -2.965811    1.526092
H        -3.822478   -1.672884    1.771880
H         3.923284    1.250946    2.032434
H        -1.092625    1.299329    0.021649
H         4.245652    1.536830   -1.170919
H        -0.220800    2.051630   -2.064670
H         2.702942    2.670455   -0.082445
H         0.913496    3.775387    0.086917
H        -0.155027    4.295580   -1.181916
H         4.173770   -2.330605    0.020545
H         3.715345   -1.177679    1.249329
H         1.188925    1.823458    1.641513
H         1.824496    0.208255    1.465620
