88
0 1
N         0.542682   -2.144652   -0.289855
C        -0.881620   -1.826557   -0.422632
C        -1.511135   -2.831949   -1.428558
C        -2.977098   -2.557202   -1.680155
C        -3.963124   -3.145669   -0.875289
C        -5.310779   -2.834815   -1.062904
C        -5.692162   -1.927606   -2.053968
C        -4.718554   -1.341461   -2.865225
C        -3.372210   -1.658711   -2.681220
C        -1.574677   -1.979015    0.962218
O        -1.442428   -3.026320    1.583065
N        -2.312629   -0.925198    1.442520
C        -3.010335    0.110301    0.636520
C        -4.394340    0.180057    1.342215
C        -4.033241   -0.015018    2.822087
C        -2.968845   -1.118956    2.763613
C        -2.475882    1.567414    0.495111
O        -3.012593    2.238858   -0.380665
N        -1.609838    2.152270    1.387799
C        -0.471356    1.597588    2.149542
C        -0.402579    2.201779    3.550880
C         0.824435    1.904444    1.328196
O         1.661873    2.722357    1.689284
N         0.843007    1.206837    0.160104
C         1.589067    1.379961   -1.083225
C         2.078822    2.826723   -1.354336
C         0.922508    3.813879   -1.322198
C         0.871248    4.837759   -0.368304
C        -0.226001    5.700215   -0.305257
C        -1.291203    5.550386   -1.194423
C        -1.242614    4.543602   -2.160236
C        -0.141584    3.692027   -2.227444
C         2.655642    0.281475   -1.357774
O         2.643665   -0.276263   -2.454938
N         3.563202   -0.069845   -0.401021
C         4.632388   -1.012267   -0.803418
C         5.640508   -0.964944    0.373749
C         5.397189    0.422751    0.998694
C         3.876768    0.606680    0.877199
C         4.199674   -2.442783   -1.179775
O         4.771567   -3.034207   -2.080423
N         3.190762   -3.070972   -0.464378
C         2.630719   -2.750198    0.850998
C         2.399106   -4.050083    1.649596
C         1.294418   -1.972839    0.829720
O         0.942089   -1.337939    1.818513
H         0.997948   -2.570937   -1.078587
H        -1.011951   -0.821297   -0.829717
H        -0.952145   -2.774733   -2.365086
H        -1.365608   -3.831799   -1.021203
H        -3.672228   -3.840018   -0.098825
H        -6.060252   -3.302354   -0.437497
H        -6.736611   -1.683986   -2.196278
H        -5.004405   -0.640172   -3.637759
H        -2.622795   -1.199555   -3.314302
H        -3.138461   -0.227515   -0.383755
H        -5.006523   -0.647796    0.984064
H        -4.922171    1.103736    1.122801
H        -4.884365   -0.300273    3.438646
H        -3.623993    0.906408    3.237151
H        -3.411306   -2.114305    2.802158
H        -2.229776   -1.067037    3.561924
H        -1.489104    3.127261    1.146230
H        -0.587986    0.522679    2.216141
H        -0.278035    3.282301    3.514849
H        -1.311335    1.975239    4.104777
H         0.445298    1.795080    4.097798
H         0.137832    0.503421    0.092439
H         0.869512    1.165593   -1.871517
H         2.853077    3.125595   -0.655030
H         2.537646    2.805705   -2.345309
H         1.678965    4.947371    0.339775
H        -0.246125    6.484521    0.440724
H        -2.148696    6.207626   -1.136446
H        -2.062822    4.415834   -2.853244
H        -0.118873    2.920763   -2.987611
H         5.101568   -0.640622   -1.713499
H         6.658564   -1.114684    0.021190
H         5.443411   -1.751718    1.102668
H         5.745477    0.497103    2.027885
H         5.912887    1.192128    0.421085
H         3.344813    0.128437    1.701261
H         3.571021    1.644625    0.875026
H         3.102895   -4.031397   -0.756193
H         3.323667   -2.133496    1.412911
H         3.335057   -4.590662    1.782659
H         1.687107   -4.700070    1.141140
H         1.986198   -3.819793    2.627709
