88
0 1
N         1.937112   -1.470305   -2.408822
C         1.907782   -0.616677   -1.228534
C         1.029623   -1.250681   -0.086484
C         1.561095   -2.547725    0.474990
C         1.318570   -3.768547   -0.171206
C         1.829447   -4.960086    0.343729
C         2.583208   -4.952533    1.518923
C         2.821674   -3.744992    2.176810
C         2.314081   -2.554327    1.657398
C         3.372594   -0.482212   -0.732260
O         4.202700   -1.326801   -1.059308
N         3.653440    0.506665    0.154623
C         2.789364    1.595138    0.623958
C         3.209910    1.717561    2.111933
C         4.733058    1.469422    2.063560
C         4.936047    0.473038    0.897418
C         3.112830    2.923479   -0.100333
O         4.234553    3.140114   -0.539868
N         2.162306    3.923585   -0.079763
C         0.691567    3.873604   -0.155144
C         0.139526    5.293993    0.051805
C         0.043665    2.953873    0.924180
O         0.272847    3.091682    2.116295
N        -0.777881    2.031187    0.349122
C        -1.673710    1.026783    0.941244
C        -1.561411    0.792698    2.463034
C        -2.347022   -0.460663    2.803399
C        -1.744280   -1.723174    2.691404
C        -2.477608   -2.889497    2.912817
C        -3.829685   -2.811317    3.254475
C        -4.437678   -1.560377    3.377377
C        -3.703038   -0.394666    3.152123
C        -3.125467    1.434106    0.561820
O        -3.672096    2.380686    1.114752
N        -3.744034    0.719988   -0.428110
C        -3.192116   -0.381581   -1.222341
C        -4.410694   -0.851332   -2.061569
C        -5.207630    0.448264   -2.271802
C        -5.066179    1.163727   -0.921753
C        -2.019652    0.106190   -2.124325
O        -1.763369    1.300282   -2.279791
N        -1.280142   -0.880676   -2.692157
C        -0.110033   -0.603020   -3.546466
C        -0.497807   -0.524220   -5.029004
C         0.941553   -1.720467   -3.309478
O         0.891776   -2.762170   -3.955946
H         2.645008   -2.189030   -2.350326
H         1.486573    0.353105   -1.484769
H         0.035011   -1.402891   -0.499041
H         0.919361   -0.524457    0.714669
H         0.734863   -3.791534   -1.081763
H         1.635607   -5.891898   -0.171245
H         2.976481   -5.877572    1.919276
H         3.398641   -3.728610    3.092172
H         2.503050   -1.622945    2.174926
H         1.748088    1.330523    0.527140
H         2.700229    0.938522    2.680544
H         2.925950    2.670459    2.547839
H         5.112872    1.075467    3.004929
H         5.260824    2.398651    1.863034
H         5.761583    0.753949    0.247706
H         5.112573   -0.547614    1.233756
H         2.548951    4.764144   -0.481353
H         0.398485    3.531909   -1.153839
H         0.541185    5.985937   -0.688879
H         0.392646    5.653565    1.046349
H        -0.944215    5.295721   -0.048405
H        -0.905297    2.090898   -0.649201
H        -1.411152    0.083798    0.471046
H        -0.515285    0.674524    2.734265
H        -1.931122    1.662887    2.997327
H        -0.694080   -1.799516    2.439713
H        -1.991106   -3.852403    2.824924
H        -4.400114   -3.714117    3.430142
H        -5.482789   -1.489772    3.650445
H        -4.182805    0.570570    3.238351
H        -2.838934   -1.190108   -0.580603
H        -4.989842   -1.569093   -1.479127
H        -4.121377   -1.340979   -2.990114
H        -6.245527    0.268980   -2.546462
H        -4.754190    1.044916   -3.063836
H        -5.844848    0.867350   -0.214817
H        -5.093454    2.247678   -0.996598
H        -1.574017   -1.839888   -2.617134
H         0.268248    0.364551   -3.230004
H         0.369792   -0.270115   -5.636249
H        -0.879931   -1.477571   -5.383847
H        -1.252338    0.245854   -5.174460
