88
0 1
N         3.043112   -1.587591   -0.779406
C         3.034108   -0.333515   -0.035784
C         3.794440   -0.429131    1.335944
C         5.247409   -0.824596    1.223106
C         6.255488    0.146800    1.165465
C         7.594721   -0.218212    1.036106
C         7.949085   -1.566509    0.960060
C         6.954945   -2.544518    1.020426
C         5.616191   -2.175309    1.154962
C         3.753401    0.707332   -0.929836
O         4.655685    0.342766   -1.676799
N         3.436317    2.024728   -0.761407
C         2.180182    2.537055   -0.193807
C         2.346317    4.071706   -0.353073
C         3.136555    4.204627   -1.666197
C         4.115681    3.024471   -1.620316
C         0.975324    2.001070   -1.013609
O         1.164439    1.441420   -2.092338
N        -0.309790    2.210037   -0.578062
C        -0.914607    2.413187    0.756079
C        -0.389511    3.588978    1.590786
C        -0.812467    1.100128    1.572555
O         0.284638    0.775523    2.031375
N        -1.892763    0.269354    1.747942
C        -3.368880    0.352584    1.605701
C        -3.907515    1.382215    0.562372
C        -5.360471    1.178940    0.179707
C        -6.399461    1.573707    1.030549
C        -7.730268    1.374754    0.666300
C        -8.040348    0.780415   -0.559036
C        -7.010998    0.392341   -1.418217
C        -5.678774    0.591696   -1.051601
C        -4.041868   -1.019785    1.307111
O        -5.068668   -1.279625    1.922651
N        -3.642458   -1.784079    0.230877
C        -2.265038   -2.183561   -0.140055
C        -2.475045   -3.436971   -1.059814
C        -3.941165   -3.328592   -1.505063
C        -4.623419   -2.783743   -0.254385
C        -1.449360   -1.116459   -0.887915
O        -1.984860   -0.195859   -1.508575
N        -0.092771   -1.277717   -0.861822
C         0.696118   -2.421463   -0.329974
C         0.843988   -2.467645    1.209244
C         2.069988   -2.505004   -1.058676
O         2.272396   -3.430429   -1.834854
H         3.872498   -1.700022   -1.344459
H         2.015848   -0.049160    0.189528
H         3.698676    0.537322    1.832535
H         3.258971   -1.143284    1.957810
H         5.988581    1.194758    1.219419
H         8.358566    0.547466    0.993822
H         8.988110   -1.851625    0.858978
H         7.219744   -3.592637    0.967540
H         4.852820   -2.940511    1.207241
H         2.072039    2.244960    0.846481
H         1.398038    4.599743   -0.376529
H         2.920685    4.460147    0.489546
H         2.465135    4.101737   -2.518426
H         3.640207    5.165375   -1.759501
H         5.073307    3.298662   -1.172327
H         4.324696    2.598462   -2.597632
H        -0.946319    1.737225   -1.207545
H        -1.941530    2.648973    0.530109
H        -1.025780    3.706018    2.467891
H         0.622478    3.446435    1.951414
H        -0.442510    4.513788    1.021939
H        -1.617151   -0.493501    2.347251
H        -3.777359    0.619414    2.581225
H        -3.305578    1.309382   -0.335066
H        -3.797004    2.381998    0.983630
H        -6.168434    2.032700    1.983840
H        -8.522519    1.682192    1.336327
H        -9.073405    0.627150   -0.842431
H        -7.242340   -0.057887   -2.375044
H        -4.879590    0.288436   -1.713780
H        -1.731442   -2.479277    0.756677
H        -2.318372   -4.345967   -0.478405
H        -1.778588   -3.463213   -1.894874
H        -4.037417   -2.619268   -2.327441
H        -4.354155   -4.281539   -1.831955
H        -5.576610   -2.296350   -0.439130
H        -4.794404   -3.568266    0.488499
H         0.388999   -0.630749   -1.469628
H         0.221158   -3.344282   -0.651338
H         1.025834   -1.492967    1.644358
H         1.660854   -3.135355    1.477949
H        -0.045791   -2.871939    1.688282
