166
0 1
N        -0.988619    1.755636    2.243866
C        -2.123522    2.668160    2.391653
C        -3.058570    2.794549    1.144503
O        -4.247838    3.030815    1.377244
C        -1.728395    3.985021    3.147607
C        -2.977993    4.742511    3.643197
C        -0.774402    4.950441    2.424736
N        -2.660777    2.467122   -0.122945
C        -1.325598    2.545638   -0.754172
C        -0.903825    4.053932   -0.817914
O        -1.764325    4.909049   -0.621646
C        -1.624479    2.125212   -2.175858
C        -2.934982    2.148136   -2.410794
C        -3.711917    2.477973   -1.170807
N         0.358265    4.406359   -1.192254
C         1.552444    3.576856   -1.453031
C         1.961957    2.714012   -0.234210
O         1.422815    2.858517    0.865589
C         2.649588    4.642300   -1.781749
C         1.864049    5.865641   -2.266043
C         0.632114    5.851763   -1.367008
N         2.950233    1.803913   -0.401315
C         3.823748    1.554872   -1.544195
C         3.455070    0.320156   -2.415015
O         2.998553    0.542919   -3.535250
C         5.320656    1.616288   -1.114627
C         5.713528    3.027602   -0.741387
C         5.520829    3.504424    0.562867
C         6.203451    3.912366   -1.712085
C         5.791478    4.836213    0.882019
C         6.477924    5.243214   -1.395916
C         6.265753    5.711694   -0.097287
N         3.716036   -0.980485   -2.059281
C         4.012202   -1.751541   -0.829925
C         3.342943   -1.171282    0.437058
O         3.957237   -0.342834    1.131878
C         5.537341   -1.988766   -0.630846
C         5.824963   -3.127801    0.325501
C         5.874080   -2.920686    1.711611
C         5.998159   -4.430472   -0.162697
C         6.075509   -3.992175    2.582999
C         6.199216   -5.502915    0.706505
C         6.234006   -5.287005    2.085302
N         2.095446   -1.553717    0.771604
C         1.083716   -2.356959    0.068668
C         0.816284   -1.789878   -1.363490
O         0.768309   -0.575805   -1.495917
C         1.099270   -3.885160    0.437189
C         0.380252   -4.074164    1.797336
C         2.472908   -4.574302    0.502796
N         0.398139   -2.676838   -2.338070
C        -0.301507   -2.143983   -3.528150
C        -1.526567   -3.055047   -3.777461
O        -1.380187   -4.165792   -4.291647
C         0.744444   -2.291929   -4.654128
C         1.568472   -3.549899   -4.260335
C         1.187185   -3.851366   -2.777612
N        -2.776494   -2.637853   -3.405771
C        -3.223693   -1.319423   -2.917864
C        -3.094145   -1.218311   -1.369591
O        -1.995037   -1.079223   -0.847812
C        -4.638538   -1.216550   -3.523766
C        -5.173499   -2.663697   -3.462940
C        -3.921917   -3.526213   -3.719421
N        -4.231139   -1.287511   -0.633739
C        -4.201097   -1.056938    0.804529
C        -3.212529   -2.051892    1.466227
O        -3.179049   -3.222874    1.115229
C        -5.619463   -1.270482    1.403520
C        -6.687805   -0.515660    0.638630
C        -7.566532   -1.197114   -0.216597
C        -6.763237    0.883879    0.705886
C        -8.490636   -0.498287   -0.998574
C        -7.685279    1.580952   -0.074432
C        -8.549324    0.894078   -0.932095
N        -2.465955   -1.596320    2.519924
C        -2.286345   -0.244199    3.017601
C        -1.011274    0.407322    2.415340
O        -0.028009   -0.299574    2.201562
C        -2.169125   -0.261678    4.584376
C        -1.031309   -1.115216    5.100088
C        -1.231000   -2.474732    5.381833
C         0.256808   -0.583011    5.253200
C        -0.166725   -3.287954    5.776545
C         1.320038   -1.391183    5.651218
C         1.113851   -2.749182    5.906231
H        -0.108313    2.117552    1.895215
H        -2.806855    2.202156    3.092690
H        -1.203226    3.603377    4.030868
H        -3.648270    4.104881    4.219159
H        -2.676499    5.570392    4.285092
H        -3.553349    5.153218    2.817306
H         0.103449    4.460348    2.016203
H        -0.425406    5.703327    3.132430
H        -1.276090    5.467603    1.613319
H        -0.603310    1.895421   -0.277571
H        -0.836607    1.902456   -2.878006
H        -3.416834    1.960028   -3.358959
H        -4.206309    3.450649   -1.226833
H        -4.485662    1.745302   -0.940474
H         1.385821    2.921351   -2.310399
H         3.367743    4.292648   -2.515282
H         3.208997    4.885423   -0.879394
H         1.570872    5.746361   -3.310903
H         2.437491    6.788277   -2.186902
H        -0.236522    6.343562   -1.792990
H         0.828151    6.317088   -0.397301
H         3.156360    1.269309    0.432387
H         3.672899    2.348056   -2.261102
H         5.477692    0.943093   -0.278418
H         5.927976    1.256253   -1.945979
H         5.157384    2.833330    1.329092
H         6.364394    3.557926   -2.723246
H         5.633113    5.187148    1.893475
H         6.857055    5.910400   -2.159274
H         6.475819    6.743953    0.150332
H         3.435643   -1.571359   -2.823169
H         3.574337   -2.721785   -1.028093
H         6.009631   -1.072710   -0.290295
H         5.952567   -2.213017   -1.613737
H         5.742519   -1.923040    2.104289
H         5.973393   -4.607334   -1.231514
H         6.109142   -3.813711    3.650091
H         6.330075   -6.500893    0.308492
H         6.388508   -6.116687    2.762646
H         1.707106   -1.006058    1.527543
H         0.151907   -2.001314    0.506235
H         0.484108   -4.390583   -0.307760
H         0.815820   -3.451746    2.578639
H        -0.677576   -3.839603    1.709697
H         0.448807   -5.109186    2.131665
H         2.349020   -5.613619    0.804809
H         3.009304   -4.599893   -0.441721
H         3.125467   -4.105518    1.235431
H        -0.560772   -1.112248   -3.336143
H         1.371015   -1.401525   -4.646133
H         0.296195   -2.381157   -5.641379
H         1.324541   -4.401506   -4.888725
H         2.639486   -3.367305   -4.365333
H         0.592520   -4.758870   -2.712243
H         2.058324   -3.978027   -2.148714
H        -2.577933   -0.535185   -3.298452
H        -4.544356   -0.900522   -4.563884
H        -5.276315   -0.481934   -3.034266
H        -5.600118   -2.889130   -2.486514
H        -5.956366   -2.849015   -4.196329
H        -3.845100   -3.849319   -4.757268
H        -3.891971   -4.425425   -3.105583
H        -5.130743   -1.311418   -1.072164
H        -3.892746   -0.027285    0.968235
H        -5.590443   -0.952981    2.447089
H        -5.831777   -2.339519    1.405056
H        -7.532888   -2.278957   -0.265382
H        -6.089631    1.436961    1.344512
H        -9.161583   -1.041953   -1.651064
H        -7.721420    2.660524   -0.013143
H        -9.262125    1.438286   -1.537671
H        -1.782564   -2.262510    2.838111
H        -3.178399    0.320241    2.782344
H        -3.122342   -0.623797    4.970819
H        -2.059783    0.767953    4.927454
H        -2.222779   -2.899574    5.291344
H         0.430425    0.465561    5.051434
H        -0.340589   -4.335720    5.983735
H         2.308019   -0.962561    5.756118
H         1.940756   -3.377539    6.209905
