108
0 1
O        -0.606147    3.347129   -3.350946
O        -1.454222    2.554031    2.216640
O        -1.668743   -1.076843   -0.890702
O         1.185954   -3.865200    1.260498
O         4.444396   -2.141692   -1.694626
O         1.272570    0.468609   -0.247581
N        -1.217438    3.681140    0.264062
N        -1.942908    0.207100    0.970126
N         0.305379   -1.764083    1.538430
N         3.656485   -2.315849    0.430070
N         1.942297   -0.643876   -2.122072
N         0.633673    2.671496   -1.547542
C        -0.427958    3.279116   -2.141320
C        -1.612536    2.597071    0.998549
C        -1.623878   -0.951128    0.324986
C         1.329542   -2.658650    1.413002
C         3.493218   -2.122848   -0.911444
C         1.556165    0.458719   -1.447693
C        -1.444209    3.940310   -1.170975
C        -1.367595    5.482679   -1.253622
C        -0.317507    5.833257   -0.183970
C        -0.635165    4.855545    0.958996
C        -2.282936    1.424412    0.252781
C        -3.832454    1.636696    0.201596
C        -4.532999    0.477347   -0.469857
C        -5.190518   -0.499470    0.286059
C        -5.768422   -1.612216   -0.328466
C        -5.700834   -1.757994   -1.714085
C        -5.058101   -0.782037   -2.479572
C        -4.479570    0.323610   -1.861433
C        -1.089706   -2.098657    1.222930
C        -1.923411   -2.489805    2.481718
C        -1.957307   -1.492632    3.619159
C        -0.832096   -1.287718    4.434254
C        -0.851833   -0.336660    5.454348
C        -1.999777    0.422505    5.688838
C        -3.133570    0.212526    4.903859
C        -3.110732   -0.738758    3.883383
C         2.718899   -1.988481    1.534240
C         3.469344   -2.500790    2.778497
C         4.940889   -2.218740    2.437551
C         5.026446   -2.566374    0.944292
C         2.065379   -1.952861   -1.477300
C         1.781896   -3.103298   -2.479664
C         0.324862   -3.188281   -2.875724
C        -0.189291   -2.444844   -3.944577
C        -1.547772   -2.492238   -4.259241
C        -2.411402   -3.293894   -3.513001
C        -1.907676   -4.049823   -2.454212
C        -0.551227   -3.997434   -2.139357
C         1.516511    1.768457   -2.263068
C         2.958894    2.354007   -2.433408
C         3.707984    2.460332   -1.124210
C         3.518114    3.558877   -0.274081
C         4.139576    3.612751    0.973967
C         4.973343    2.571602    1.387113
C         5.187120    1.483680    0.538630
C         4.558755    1.426974   -0.705849
H        -1.845831    0.304687    1.966456
H         0.549864   -0.792152    1.457525
H         2.254508   -0.558923   -3.072244
H         0.619372    2.530980   -0.551609
H        -2.422602    3.589033   -1.490679
H        -1.117224    5.821234   -2.255791
H        -2.337155    5.909133   -0.990964
H        -0.362184    6.872406    0.136982
H         0.686438    5.655770   -0.571216
H        -1.363199    5.263646    1.662653
H         0.238127    4.561474    1.538201
H        -1.906386    1.313121   -0.759606
H        -4.187388    1.768833    1.224156
H        -4.048279    2.570326   -0.322800
H        -5.256767   -0.384829    1.359860
H        -6.271545   -2.357969    0.273624
H        -6.147266   -2.619436   -2.193396
H        -5.002708   -0.884045   -3.555184
H        -3.968016    1.063536   -2.464514
H        -1.077397   -2.973653    0.579639
H        -1.500065   -3.432238    2.833183
H        -2.935782   -2.714568    2.142583
H         0.057453   -1.879345    4.272083
H         0.027917   -0.191733    6.068118
H        -2.011724    1.163903    6.476639
H        -4.033362    0.786582    5.082468
H        -3.994582   -0.897807    3.280380
H         2.611784   -0.903848    1.587400
H         3.125373   -2.009534    3.687821
H         3.293603   -3.571710    2.884586
H         5.639608   -2.796629    3.040755
H         5.167646   -1.162822    2.594920
H         5.750030   -1.967596    0.397114
H         5.287300   -3.614055    0.780590
H         1.299494   -1.974146   -0.721476
H         2.088882   -4.029964   -1.994864
H         2.437641   -2.986560   -3.344099
H         0.473068   -1.830187   -4.542002
H        -1.927777   -1.906025   -5.086087
H        -3.465315   -3.329009   -3.752584
H        -2.570971   -4.675231   -1.870705
H        -0.166793   -4.573057   -1.306983
H         1.089976    1.605114   -3.251824
H         2.851361    3.327034   -2.913222
H         3.508280    1.721795   -3.132933
H         2.887026    4.377142   -0.594636
H         3.980023    4.468463    1.617392
H         5.460284    2.614914    2.352574
H         5.852743    0.684551    0.836848
H         4.730903    0.574575   -1.348645
