108
0 1
O         1.510751   -0.692449    2.829441
O         4.566580    1.775195    0.030806
O        -0.096655    1.242636   -1.217554
O        -2.703054    2.946987   -3.094563
O        -5.208093    0.032403   -1.636891
O        -1.443880    0.463278    2.440774
N         3.804389   -0.153696    0.957266
N         2.013205    2.088961   -1.083521
N        -1.007565    3.842181   -1.886723
N        -4.089467    1.878360   -0.993224
N        -2.791611   -0.112726    0.718854
N         0.524065   -1.439942    0.894258
C         1.590933   -1.103724    1.680277
C         3.758911    0.845024    0.041901
C         0.663203    2.202666   -1.094277
C        -2.182914    3.108263   -2.001091
C        -4.179607    0.530704   -1.191646
C        -1.673351   -0.293204    1.504168
C         2.963008   -1.366741    0.997720
C         3.816693   -2.341806    1.845817
C         4.585545   -1.418658    2.810118
C         4.901143   -0.187528    1.948168
C         2.666821    0.786848   -1.045547
C         3.304586    0.421727   -2.419604
C         3.848494   -0.988715   -2.392125
C         5.166351   -1.247838   -1.991855
C         5.621309   -2.559966   -1.848635
C         4.763575   -3.633420   -2.100607
C         3.450632   -3.385910   -2.508934
C         2.999213   -2.073798   -2.655909
C         0.122285    3.647125   -0.963871
C        -0.144995    4.020615    0.526705
C         1.106970    3.881059    1.368812
C         1.280982    2.763934    2.195984
C         2.460510    2.599010    2.923536
C         3.482534    3.543820    2.827205
C         3.316929    4.663513    2.009040
C         2.134339    4.832717    1.288544
C        -2.916983    2.707818   -0.697338
C        -3.579952    3.953206   -0.053789
C        -4.848551    4.144437   -0.909770
C        -5.282612    2.710066   -1.278534
C        -2.966674   -0.351864   -0.739544
C        -3.225419   -1.837978   -1.122220
C        -2.138878   -2.465886   -1.971802
C        -1.603524   -3.723385   -1.655593
C        -0.635463   -4.322592   -2.465745
C        -0.187251   -3.674331   -3.617226
C        -0.709692   -2.419305   -3.944068
C        -1.672413   -1.822596   -3.130809
C        -0.876967   -1.607728    1.300709
C        -1.018256   -2.471769    2.593131
C        -2.447502   -2.920368    2.805960
C        -2.912197   -4.109396    2.225510
C        -4.245684   -4.499813    2.354341
C        -5.138686   -3.704788    3.075363
C        -4.684412   -2.527046    3.671733
C        -3.350671   -2.138938    3.539804
H         2.595045    2.877751   -0.853986
H        -0.699567    4.087377   -2.815313
H        -3.352283    0.638512    1.087096
H         0.713702   -1.734767   -0.045926
H         2.834571   -1.768915   -0.001694
H         3.211462   -3.090002    2.354445
H         4.502672   -2.866316    1.179923
H         5.486945   -1.882677    3.208167
H         3.947479   -1.143323    3.645853
H         5.855804   -0.280843    1.425221
H         4.930569    0.742652    2.509407
H         1.887655    0.070346   -0.829241
H         2.530475    0.525411   -3.179993
H         4.086324    1.147107   -2.643485
H         5.831397   -0.420711   -1.780650
H         6.642852   -2.742537   -1.540982
H         5.116200   -4.650099   -1.986788
H         2.776875   -4.208215   -2.708784
H         1.978874   -1.891516   -2.966893
H         0.886958    4.340888   -1.314036
H        -0.922451    3.392031    0.948116
H        -0.516202    5.046428    0.539867
H         0.500425    2.021491    2.280162
H         2.569517    1.724133    3.547517
H         4.400784    3.414272    3.384650
H         4.103322    5.403173    1.934252
H         2.008641    5.710760    0.665050
H        -2.241205    2.200449   -0.024244
H        -3.834416    3.722142    0.981979
H        -2.935075    4.827217   -0.049037
H        -4.612128    4.711923   -1.808414
H        -5.628972    4.688226   -0.380350
H        -5.573689    2.613375   -2.322077
H        -6.115325    2.352164   -0.673253
H        -2.074734    0.011150   -1.246361
H        -3.404178   -2.420040   -0.221306
H        -4.165896   -1.865818   -1.673372
H        -1.961430   -4.245614   -0.777850
H        -0.244195   -5.296898   -2.201819
H         0.550072   -4.140731   -4.257127
H        -0.376278   -1.909888   -4.839019
H        -2.074996   -0.858145   -3.411303
H        -1.318570   -2.167014    0.488743
H        -0.648458   -1.898354    3.437373
H        -0.365009   -3.337216    2.473162
H        -2.221393   -4.739164    1.677739
H        -4.583487   -5.421457    1.898318
H        -6.173784   -4.003346    3.176589
H        -5.367392   -1.910047    4.241375
H        -3.007650   -1.222431    3.999778
