111
0 1
O         2.465719   -1.178868    1.583519
O         8.041429   -0.748938   -0.695013
N         0.425531   -2.783918   -0.768912
C         2.078197   -1.172705    0.414134
C         1.776071   -2.557950   -0.246371
C         2.821994   -2.975570   -1.333776
C         4.218081   -2.420392   -1.134959
C         4.900526   -2.535808    0.083485
C         6.170141   -1.988488    0.254777
C         6.799242   -1.316688   -0.801615
C         6.142912   -1.216492   -2.034205
C         4.872023   -1.762839   -2.186893
O         3.668603    2.588391    1.778874
N         2.009026   -0.010997   -0.293672
C         2.673656    1.944916    1.444330
C         2.881190    1.112800    0.156588
C         2.907364    2.070410   -1.065243
C         2.604329    1.165701   -2.266546
C         1.582049    0.174665   -1.697082
O        -2.076760    2.062128    2.022610
N         1.482606    2.114434    2.101240
C        -0.961926    2.047044    1.514653
C         0.250371    1.288217    2.134261
C         0.047282    1.059783    3.636440
C         0.374772    2.445773    4.219811
C         1.538837    2.949450    3.341489
O        -2.213407    3.424335   -2.834988
N        -0.687159    2.652197    0.320646
C        -1.933539    2.771685   -1.836244
C        -1.663616    3.418023   -0.445442
C        -1.306005    4.923939   -0.555040
C        -1.399921    5.596178    0.828329
C         0.070232    5.161211   -1.228780
C         0.291891    6.605131   -1.710329
O        -0.885016   -1.363736   -3.258506
N        -1.882990    1.407712   -1.840951
C        -1.916897   -0.840985   -2.830283
C        -2.194694    0.653079   -3.055821
O        -2.294570   -0.603608    0.414896
N        -2.858308   -1.572298   -2.165719
C        -3.371136   -1.141913    0.161188
C        -3.929321   -1.067828   -1.303720
C        -5.304091   -1.732713   -1.606882
C        -6.457117   -0.925422   -0.963684
C        -5.544479   -1.852666   -3.125761
O        -1.384060   -1.844165    3.383851
N        -4.064020   -1.851067    1.088400
C        -2.174552   -2.383936    2.629846
C        -3.666007   -1.943127    2.512037
C        -3.958161   -0.657157    3.289123
O        -1.618824   -3.757409   -0.770806
N        -1.876229   -3.481371    1.862514
C        -0.596293   -3.421048   -0.154558
C        -0.518654   -3.714255    1.365798
C        -0.060283   -5.160893    1.625398
H         8.373289   -0.847681    0.207640
H         0.229863   -2.542110   -1.732763
H         1.911466   -3.225408    0.596240
H         2.830540   -4.068896   -1.350561
H         2.462939   -2.680695   -2.318988
H         4.439246   -3.034023    0.923638
H         6.664954   -2.079884    1.214186
H         6.633041   -0.708585   -2.852445
H         4.381385   -1.677808   -3.148422
H         3.874196    0.691370    0.308044
H         2.144398    2.844617   -0.973299
H         3.861437    2.586186   -1.126639
H         2.217500    1.708334   -3.127981
H         3.505670    0.639958   -2.577566
H         1.547468   -0.753794   -2.248931
H         0.578169    0.592040   -1.721524
H         0.377963    0.363331    1.587947
H         0.762637    0.307797    3.966718
H        -0.946078    0.702514    3.875573
H         0.653530    2.410640    5.271956
H        -0.494031    3.098083    4.137481
H         1.464853    4.007702    3.089860
H         2.508549    2.802766    3.809463
H         0.271094    2.696355    0.032913
H        -2.597405    3.326330    0.112976
H        -2.068946    5.355777   -1.206294
H        -2.378122    5.443249    1.283100
H        -1.238443    6.670423    0.762695
H        -0.656690    5.196844    1.518827
H         0.871698    4.896591   -0.532460
H         0.170077    4.498861   -2.090274
H         0.272709    7.324189   -0.892433
H         1.258716    6.707093   -2.202866
H        -0.473512    6.900296   -2.428391
H        -1.766875    0.897099   -0.978279
H        -3.224374    0.833760   -3.376031
H        -1.553101    0.982436   -3.868876
H        -2.529950   -2.506657   -1.936898
H        -4.046099   -0.002689   -1.494243
H        -5.300396   -2.751862   -1.202406
H        -6.325123   -0.737727    0.100331
H        -7.408558   -1.440224   -1.089490
H        -6.552042    0.049985   -1.442614
H        -6.530461   -2.273457   -3.320911
H        -4.807920   -2.488295   -3.608841
H        -5.505792   -0.876293   -3.611091
H        -4.948186   -2.246942    0.836542
H        -4.269183   -2.758199    2.919978
H        -3.393131    0.181463    2.896030
H        -3.687985   -0.785284    4.334442
H        -5.020788   -0.422861    3.237850
H        -2.568113   -3.761854    1.185873
H         0.133294   -3.014829    1.881377
H        -0.718274   -5.870933    1.126563
H         0.951886   -5.333340    1.259213
H        -0.073906   -5.368408    2.693017
