111
0 1
O         0.931061    0.543171    0.518754
O         7.124712   -0.663672   -0.911032
N         0.717787    3.468756    0.951921
C         1.281758    1.457369   -0.236764
C         1.855940    2.773138    0.346880
C         2.957355    2.496523    1.388660
C         4.098083    1.695148    0.794956
C         4.872862    2.197835   -0.258881
C         5.885387    1.436948   -0.843680
C         6.155056    0.146673   -0.369955
C         5.402825   -0.364841    0.693809
C         4.388108    0.404231    1.256868
O        -0.646989   -1.793646   -2.201720
N         1.046802    1.405863   -1.576414
C         0.320401   -1.025996   -2.106945
C         0.018066    0.484256   -2.078387
C        -0.351966    1.073912   -3.459640
C         0.945668    1.762117   -3.921712
C         1.524861    2.349027   -2.621958
O         0.532796   -4.664011   -0.485022
N         1.573940   -1.515199   -1.938694
C         0.914372   -3.491943   -0.507268
C         1.712008   -2.971257   -1.715561
C         3.235817   -3.165013   -1.540153
C         3.832007   -2.031729   -2.390232
C         2.893539   -0.852563   -2.087506
O        -2.069260   -1.925970    2.144769
N         0.756186   -2.631197    0.531645
C        -1.444779   -2.831185    1.587900
C         0.085364   -3.048788    1.770509
C         0.649913   -2.320442    3.014590
C         0.000524   -2.887200    4.295235
C         2.194326   -2.439549    3.063180
C         2.853285   -1.675304    4.224279
O        -5.183404   -1.950549    0.418306
N        -2.042237   -3.697014    0.730714
C        -4.078529   -2.311792    0.035069
C        -3.485612   -3.664499    0.507148
O        -4.066311    1.958914   -0.546728
N        -3.310082   -1.612501   -0.843289
C        -3.639135    0.820456   -0.302264
C        -3.688565   -0.305851   -1.385327
C        -5.022332   -0.292911   -2.213208
C        -5.219265   -1.619184   -2.974611
C        -5.034799    0.881256   -3.217259
O        -1.107313    2.509239    2.881206
N        -3.040543    0.491554    0.860972
C        -2.039074    2.462246    2.067947
C        -3.044701    1.284284    2.104286
C        -4.457818    1.703963    2.550364
O         0.173962    4.719420   -0.892660
N        -2.270722    3.399506    1.118042
C        -0.104925    4.277367    0.219370
C        -1.466241    4.613779    0.891567
C        -1.328477    5.507158    2.138029
H         7.595259   -0.193423   -1.612629
H         0.324645    3.059116    1.795648
H         2.247442    3.417732   -0.432083
H         3.304909    3.457490    1.772995
H         2.524406    1.957049    2.229756
H         4.695876    3.198978   -0.631561
H         6.467297    1.851512   -1.658575
H         5.619493   -1.356766    1.064289
H         3.809577   -0.005144    2.070708
H        -0.825853    0.535857   -1.394103
H        -0.717452    0.316267   -4.148715
H        -1.145260    1.810686   -3.331794
H         0.773849    2.532413   -4.671363
H         1.626404    1.032428   -4.363372
H         2.613917    2.388315   -2.629813
H         1.143476    3.349008   -2.430463
H         1.342726   -3.521837   -2.580276
H         3.552046   -4.160400   -1.842557
H         3.515584   -3.033402   -0.494036
H         3.786247   -2.287560   -3.450845
H         4.867766   -1.810237   -2.144939
H         2.881752   -0.120767   -2.886903
H         3.182206   -0.351866   -1.167746
H         0.921865   -1.641462    0.413268
H         0.268877   -4.119105    1.869679
H         0.386208   -1.262401    2.931465
H         0.318781   -2.333269    5.175351
H         0.278672   -3.932015    4.449427
H        -1.082533   -2.825526    4.261738
H         2.611833   -2.072848    2.125834
H         2.475954   -3.496247    3.116733
H         3.939804   -1.698237    4.137441
H         2.547443   -0.627963    4.237412
H         2.605403   -2.095998    5.197043
H        -1.469208   -4.381825    0.261197
H        -4.021871   -3.916143    1.420730
H        -3.719516   -4.427381   -0.234288
H        -2.420777   -1.973886   -1.151588
H        -2.891441   -0.070680   -2.090498
H        -5.852250   -0.170451   -1.517244
H        -6.092795   -1.546436   -3.622725
H        -4.363077   -1.851816   -3.610410
H        -5.384340   -2.462598   -2.311045
H        -5.972171    0.893881   -3.774103
H        -4.229587    0.778725   -3.949708
H        -4.921784    1.839424   -2.723658
H        -2.723008   -0.453140    1.000861
H        -2.632245    0.614054    2.851922
H        -5.085538    0.819897    2.645566
H        -4.406340    2.194491    3.521695
H        -4.931848    2.380911    1.847497
H        -2.992153    3.179550    0.437388
H        -2.001680    5.175093    0.129563
H        -2.315085    5.784695    2.505966
H        -0.796687    6.420855    1.875359
H        -0.795012    5.015032    2.943254
