58
0 1
N         3.490944    1.458011    0.674564
C         2.073113    1.371251    0.391411
C         1.588898    2.726904   -0.164244
O         2.387997    3.590013   -0.513141
N         0.243037    2.876825   -0.277731
C        -0.790629    1.954637    0.210696
C        -0.874904    0.665402   -0.654108
O        -0.746475    0.686063   -1.866442
C        -2.088139    2.796230    0.077946
C        -1.802021    3.703796   -1.131916
C        -0.320677    4.065938   -0.954152
N        -1.092795   -0.475614    0.076619
C        -1.507367   -1.762097   -0.513129
C        -0.627094   -2.211759   -1.719889
O        -1.127390   -2.468716   -2.803565
C        -3.003479   -1.766423   -0.913691
C        -3.902760   -1.270583    0.198469
C        -4.002749   -1.960858    1.416924
C        -4.643216   -0.090583    0.045734
C        -4.801352   -1.476978    2.453820
C        -5.448237    0.395515    1.078766
C        -5.524612   -0.292880    2.290068
N         0.707434   -2.385047   -1.491286
C         1.476457   -2.309987   -0.264098
C         2.971566   -2.278711   -0.663913
O         3.331924   -2.787937   -1.718176
N         3.867560   -1.734033    0.208879
C         3.682598   -0.916691    1.419326
C         4.323467    0.470493    1.105924
O         5.534266    0.623734    1.204631
C         4.351565   -1.566580    2.636844
H         3.928069    2.313585    0.362571
H         1.854145    0.619312   -0.370183
H         1.508164    1.102633    1.285494
H        -0.611398    1.699443    1.257317
H        -2.217761    3.390688    0.983933
H        -2.974460    2.177002   -0.031717
H        -1.944011    3.150334   -2.058181
H        -2.444414    4.582289   -1.160409
H         0.200479    4.244383   -1.891483
H        -0.182218    4.951158   -0.328945
H        -1.359041   -0.354586    1.038806
H        -1.352157   -2.496389    0.281076
H        -3.120738   -1.160099   -1.808316
H        -3.268905   -2.783535   -1.204360
H        -3.462078   -2.889780    1.554247
H        -4.599055    0.441722   -0.895972
H        -4.865500   -2.027161    3.383761
H        -6.015051    1.306220    0.934451
H        -6.145988    0.081416    3.092778
H         1.231379   -2.728560   -2.282178
H         1.334059   -3.192079    0.375449
H         1.175690   -1.450847    0.322870
H         4.818006   -1.779102   -0.126571
H         2.618579   -0.829212    1.610608
H         4.184410   -0.966952    3.531123
H         5.425959   -1.642511    2.491829
H         3.945418   -2.561830    2.807503
