58
0 1
N         3.834825   -0.421979   -0.567557
C         2.846830    0.501396   -0.043275
C         1.999600    1.177164   -1.152241
O         2.043965    0.792829   -2.316258
N         1.192509    2.217372   -0.770535
C         1.079274    2.819317    0.575099
C         0.860091    1.854118    1.762290
O         1.602120    1.962081    2.729685
C        -0.015426    3.895628    0.395326
C         0.179647    4.347709   -1.065409
C         0.551296    3.054394   -1.812529
N        -0.053676    0.810614    1.712603
C        -1.449536    0.719547    1.204456
C        -2.091057   -0.519145    1.895528
O        -3.036785   -0.371196    2.654899
C        -1.615006    0.729913   -0.348565
C        -2.838989   -0.008871   -0.857725
C        -2.704517   -1.023982   -1.813697
C        -4.126324    0.318429   -0.406555
C        -3.821563   -1.706011   -2.298789
C        -5.243009   -0.365216   -0.885454
C        -5.095456   -1.381413   -1.832071
N        -1.559184   -1.757295    1.653353
C        -0.437510   -2.152502    0.826777
C         0.898279   -2.186031    1.607842
O         0.904417   -2.077524    2.827429
N         2.079848   -2.315484    0.915569
C         2.504638   -2.600259   -0.474045
C         3.730077   -1.744299   -0.922288
O         4.601327   -2.286287   -1.587397
C         1.445114   -2.537805   -1.585653
H         4.625149    0.002515   -1.025149
H         3.363510    1.252793    0.553163
H         2.194560   -0.021965    0.640753
H         2.013371    3.321540    0.837506
H         0.101178    4.698462    1.120352
H        -1.010704    3.479134    0.541009
H        -0.703084    4.830382   -1.481427
H         0.999614    5.064875   -1.125789
H        -0.319201    2.549161   -2.232442
H         1.243380    3.216938   -2.635857
H         0.067022    0.278880    2.563584
H        -2.031609    1.545282    1.612968
H        -1.681189    1.767656   -0.668069
H        -0.721935    0.338863   -0.824019
H        -1.722072   -1.276743   -2.191939
H        -4.260976    1.099094    0.329368
H        -3.694465   -2.485692   -3.038584
H        -6.226886   -0.103395   -0.519063
H        -5.963437   -1.910236   -2.203070
H        -1.953814   -2.465146    2.248206
H        -0.645637   -3.146779    0.432095
H        -0.362777   -1.503642   -0.030486
H         2.847123   -2.356162    1.569051
H         2.906194   -3.615216   -0.480271
H         1.035286   -1.544146   -1.731727
H         0.641426   -3.252191   -1.430469
H         1.940663   -2.808546   -2.514728
