85
0 1
O         0.187525    4.621391   -0.835807
O        -1.081566    0.045379   -0.529114
O         0.183091   -3.158280   -0.209343
N        -3.569385    0.843124   -1.131074
N         1.647910   -1.425294   -0.346412
N         1.407265    2.150248   -0.792685
N        -1.643360    3.815313    0.214469
O        -2.579081    2.654035   -2.038197
O         2.565288    0.797686   -2.175970
N        -1.635512   -1.436667    1.096517
C        -1.949258   -0.611582    0.043480
C         2.029071    0.964509   -1.085276
C         0.573609   -2.068100    0.211932
C        -0.318974    3.719653   -0.178953
C        -2.852088    2.030088   -1.026328
C         0.570437    2.569344    0.338579
C        -0.181563   -1.445777    1.412543
C         4.676953   -0.774724   -0.050782
C         2.121245   -0.088274    0.049778
C        -3.434568   -0.406587   -0.367584
C        -5.418342   -1.481978   -1.719354
C        -2.125119   -3.137967    2.875411
C         2.209500   -2.090134   -1.544377
C         3.550614   -0.104895    0.702210
C        -2.677986    2.763645    0.348466
C        -3.933796   -1.560749   -1.276997
C         2.439643    4.155750    1.229060
C         0.561025    3.434557    2.783066
C         1.429382    3.046859    1.571506
C        -6.388765   -1.486916   -0.522402
C        -0.628543   -3.458179    2.966949
C         5.404817   -0.093156   -1.036034
C        -2.633481    1.999911    1.678494
C        -2.479635   -2.584758    1.492370
C        -5.727587   -2.644192   -2.685425
C         6.047178   -2.744712   -0.455122
C         5.021001   -2.102241    0.237803
C         6.431526   -0.732504   -1.730003
C         6.754225   -2.061366   -1.445607
C         0.153446   -2.160481    2.741792
H        -3.657802    0.666458   -2.119932
H         1.469550    2.824645   -1.539128
H        -2.017667    4.635450   -0.236393
H        -0.043254    1.732646    0.642605
H         0.072573   -0.405244    1.556801
H         1.482597    0.243396    0.848805
H        -4.047152   -0.362391    0.532995
H        -5.575669   -0.548356   -2.267725
H        -2.733821   -4.027270    3.047818
H        -2.399623   -2.414889    3.649129
H         2.582292   -3.077553   -1.287822
H         3.004387   -1.490974   -1.955361
H         1.434245   -2.203728   -2.298836
H         3.434273   -0.593214    1.671619
H         3.813329    0.932986    0.915370
H        -3.608550    3.336171    0.399813
H        -3.779651   -2.514132   -0.776140
H        -3.284526   -1.589043   -2.156167
H         3.059576    3.886136    0.376904
H         3.102580    4.328293    2.077127
H         1.949497    5.096430    0.991093
H        -0.068351    4.298584    2.576510
H        -0.090266    2.620621    3.098318
H         1.192803    3.687436    3.634220
H         2.006911    2.165993    1.866951
H        -6.262678   -0.614659    0.117584
H        -6.256112   -2.376926    0.096368
H        -7.424321   -1.482107   -0.861629
H        -0.354958   -4.201760    2.218205
H        -0.382136   -3.876071    3.944433
H         5.157267    0.931451   -1.272668
H        -2.615642    2.718319    2.494771
H        -3.529064    1.396189    1.802632
H        -1.775919    1.350519    1.795765
H        -2.364158   -3.380946    0.754722
H        -3.520202   -2.270183    1.490029
H        -5.067684   -2.634323   -3.553054
H        -6.752085   -2.589153   -3.052835
H        -5.608488   -3.612683   -2.196100
H         6.294471   -3.771820   -0.219602
H         4.474911   -2.638937    1.003788
H         6.978561   -0.192524   -2.491816
H         7.551516   -2.555595   -1.985245
H         1.230532   -2.333346    2.769622
H        -0.066371   -1.472923    3.563019
