85
0 1
O         1.603996   -3.874506    0.046311
O         0.918517    2.402563    2.325029
O        -2.205575    3.233710   -1.574998
N         3.426071    0.841140    0.391188
N        -1.991661    1.282455   -0.441607
N        -0.404055   -1.045625   -0.669080
N         2.599086   -2.009008   -0.718407
O         5.037300    0.115297   -1.020151
O        -0.828623   -1.618381    1.486440
N         0.701916    2.437508    0.065496
C         1.286239    1.976218    1.233001
C        -0.951518   -0.819934    0.565904
C        -1.653240    2.608199   -0.677115
C         1.486212   -2.796607   -0.518919
C         3.862831    0.095752   -0.675132
C         0.077181   -2.384378   -1.048731
C        -0.527978    3.255896    0.184913
C        -4.107347   -0.348300    1.341672
C        -1.677227    0.540395    0.789792
C         2.195543    0.690669    1.171845
C         3.021987   -1.257420    2.762954
C         1.678549    3.953144   -1.633445
C        -3.018670    0.741691   -1.356222
C        -2.869201    0.397819    1.794363
C         2.811913   -0.761511   -1.458751
C         2.464578    0.183456    2.609614
C         0.591211   -3.920782   -3.040331
C        -1.575492   -2.623286   -2.979802
C        -0.084093   -2.611921   -2.581727
C         2.666451   -1.782536    4.172006
C         0.451473    4.874252   -1.555222
C        -5.289644    0.351967    1.064347
C         3.321670   -0.997675   -2.889246
C         1.316626    2.500474   -1.270875
C         4.543609   -1.376990    2.533525
C        -5.254204   -2.410286    0.751889
C        -4.111190   -1.745272    1.197563
C        -6.434986   -0.312067    0.623601
C        -6.418404   -1.697531    0.456539
C        -0.262989    4.724594   -0.199300
H         4.178942    1.329685    0.850718
H        -0.556660   -0.360015   -1.385752
H         3.435426   -2.469704   -0.395607
H        -0.560029   -3.101008   -0.533496
H        -0.818566    3.235523    1.231490
H        -0.961706    1.124006    1.350907
H         1.592336   -0.053875    0.667487
H         2.508243   -1.903754    2.048778
H         2.115378    3.969710   -2.634404
H         2.457868    4.292093   -0.945313
H        -3.178150   -0.307140   -1.146149
H        -2.693879    0.860038   -2.387408
H        -3.968299    1.258771   -1.253620
H        -2.450671   -0.079259    2.679483
H        -3.142279    1.411735    2.087798
H         1.861461   -0.242165   -1.496397
H         1.510636    0.234702    3.127972
H         3.109749    0.896275    3.131372
H         0.414637   -4.080025   -4.103211
H         0.191823   -4.780502   -2.503893
H         1.667323   -3.916609   -2.886514
H        -2.104951   -3.438278   -2.485227
H        -2.091209   -1.701013   -2.727372
H        -1.683368   -2.766928   -4.054221
H         0.398708   -1.780336   -3.106434
H         3.101602   -1.157453    4.954672
H         1.588173   -1.804835    4.326642
H         3.038944   -2.796161    4.319388
H        -0.242739    4.632396   -2.358804
H         0.751053    5.913606   -1.701412
H        -5.311885    1.427841    1.187944
H         2.622947   -1.612185   -3.449381
H         4.289344   -1.490995   -2.879698
H         3.444785   -0.052616   -3.416788
H         0.621493    2.092421   -2.010188
H         2.207778    1.898280   -1.286709
H         4.862074   -1.105318    1.531095
H         5.094862   -0.740209    3.228833
H         4.878658   -2.400064    2.706287
H        -5.236813   -3.487436    0.645858
H        -3.224371   -2.310182    1.442880
H        -7.334983    0.251180    0.413364
H        -7.303717   -2.216313    0.112952
H        -1.201846    5.276242   -0.198023
H         0.358137    5.146933    0.593663
