48
0 1
C         3.481825    0.926354    1.736531
C        -1.886558   -2.003092    1.062444
C         0.396391   -2.207088    0.211925
C         1.110125   -1.991989   -1.133839
C         3.365446   -1.511259   -0.029111
C         4.119894   -0.225354   -0.441956
C         1.939206    1.087781    1.739661
C        -0.038599    1.745660    0.469773
C        -0.322241    2.325398   -0.924182
C        -2.866997    2.135235   -0.615226
C        -3.184592    2.861034    0.705131
C        -2.899705    0.568618   -0.623160
C        -3.333155   -1.502415    0.762706
C        -4.078285   -2.320473   -0.303435
N         4.137190    0.824871    0.437493
N         1.377999    1.451112    0.561861
N        -1.622763    2.602884   -1.249889
N        -3.340935   -0.040592    0.509705
N        -1.010510   -1.904698    0.031789
N         2.474371   -1.879929   -1.122550
O         1.306914    0.907498    2.773280
O         0.596251    2.580368   -1.694546
O        -2.556401   -0.024644   -1.639154
O        -1.582663   -2.419857    2.174492
O         0.482166   -2.004649   -2.184453
O         4.670510   -0.168047   -1.531896
H         3.714748    0.074193    2.372914
H         3.896169    1.793033    2.249367
H         0.797466   -1.604109    1.025068
H         0.540640   -3.248511    0.515991
H         4.118990   -2.287019    0.134090
H         2.807041   -1.421424    0.892381
H        -0.626886    0.849092    0.658721
H        -0.320777    2.467562    1.238426
H        -3.650352    2.414694   -1.321015
H        -2.518043    2.594261    1.522285
H        -4.205928    2.653803    1.022875
H        -3.104048    3.936166    0.560690
H        -3.853145   -1.626453    1.709826
H        -4.115503   -3.362132    0.012076
H        -5.102484   -1.964111   -0.405341
H        -3.608024   -2.273081   -1.278434
H         4.651167    1.621106    0.098514
H         1.920526    1.670639   -0.257663
H        -1.703069    2.876408   -2.214063
H        -3.471855    0.523477    1.327776
H        -1.298118   -1.607048   -0.888724
H         2.873278   -1.751895   -2.039975
