48
0 1
C        -4.077459    1.436332    0.140390
C         3.774425   -0.154721   -0.221955
C         1.736984    1.411409   -0.222016
C         1.584623    2.873868    0.235122
C        -0.727442    3.043832   -0.825647
C        -1.736511    2.217600    0.015153
C        -3.988718   -0.094280   -0.076124
C        -2.785053   -1.886781   -1.300002
C        -1.449878   -2.370473   -0.687503
C         0.013696   -2.271368    1.318997
C        -0.332561   -1.998979    2.785113
C         1.425574   -1.713122    0.961474
C         3.048073   -1.366415   -0.863229
C         3.028424   -1.216237   -2.393698
N        -3.014352    2.226465   -0.477771
N        -3.116250   -0.495046   -1.048543
N        -1.057648   -1.754834    0.453779
N         1.687703   -1.627900   -0.377707
N         3.126385    1.042608   -0.069018
N         0.414780    3.522601   -0.086572
O        -4.674036   -0.851159    0.590796
O        -0.829611   -3.295828   -1.211824
O         2.228470   -1.384598    1.823160
O         4.967611   -0.252563    0.026380
O         2.452191    3.445227    0.876711
O        -1.403149    1.546108    0.980407
H        -4.086088    1.593617    1.216905
H        -5.034119    1.782006   -0.245516
H         1.063162    0.822185    0.397525
H         1.398822    1.287856   -1.254125
H        -1.219593    3.898671   -1.291308
H        -0.400478    2.408862   -1.651334
H        -2.741558   -2.079763   -2.369618
H        -3.585593   -2.498156   -0.886243
H         0.056890   -3.348553    1.141503
H        -0.409139   -0.930233    2.981471
H         0.443664   -2.389623    3.435489
H        -1.279206   -2.469137    3.044363
H         3.695434   -2.206222   -0.603002
H         4.038646   -1.051267   -2.760833
H         2.644264   -2.117671   -2.872364
H         2.410810   -0.378021   -2.714930
H        -3.258786    2.867129   -1.211095
H        -2.587225    0.205475   -1.532106
H        -1.550220   -0.943026    0.782663
H         1.078524   -2.139336   -0.997491
H         3.682897    1.741473    0.399077
H         0.337672    4.424980    0.350272
