65
0 1
N         2.558757    0.604303    1.671707
C         3.140880    1.385014    0.587593
C         2.362732    1.603037   -0.744437
O         2.962988    1.393346   -1.793440
N         1.070479    2.085428   -0.734482
C         0.433091    2.817622    0.394467
C         0.033924    1.994827    1.638883
O         0.487698    2.343578    2.730221
C        -0.722963    3.605526   -0.271393
C        -0.196458    3.864179   -1.692141
C         0.514690    2.553168   -2.043725
N        -0.716264    0.844696    1.554105
C        -1.887737    0.526659    0.712874
C        -1.624776    0.177490   -0.773502
O        -2.251507    0.794145   -1.632900
C        -2.705829   -0.596146    1.414876
C        -4.025760   -0.869227    0.724743
C        -4.153827   -1.883491   -0.231859
C        -5.144647   -0.077573    1.017405
C        -5.369231   -2.099520   -0.882124
C        -6.360353   -0.290293    0.368956
C        -6.476034   -1.303612   -0.584775
N        -0.804044   -0.855473   -1.112836
C         0.220877   -1.581838   -0.364662
C         1.521246   -1.499024   -1.216817
O         1.427178   -1.459618   -2.440763
C        -0.150817   -3.076175   -0.212140
N         2.726147   -1.536305   -0.580213
C         2.963377   -1.759345    0.861416
C         2.369423   -0.737863    1.851490
O         1.768795   -1.153626    2.840295
C         4.507500   -1.862496    0.965398
C         4.926113   -2.400661   -0.414569
C         3.968755   -1.687981   -1.378908
H         2.148214    1.136790    2.421099
H         3.362278    2.367041    1.008657
H         4.093559    0.973008    0.272839
H         1.142525    3.538773    0.804197
H        -0.950089    4.508263    0.293035
H        -1.631732    3.015495   -0.334881
H         0.512538    4.694870   -1.693987
H        -0.993006    4.105027   -2.393794
H        -0.176123    1.815961   -2.441893
H         1.326366    2.671608   -2.752568
H        -0.732238    0.401775    2.460674
H        -2.539347    1.396571    0.659271
H        -2.890980   -0.271483    2.441507
H        -2.105771   -1.502260    1.483135
H        -3.301607   -2.501134   -0.477695
H        -5.064405    0.707861    1.759375
H        -5.449361   -2.888096   -1.618867
H        -7.213928    0.329688    0.610177
H        -7.418838   -1.471734   -1.088393
H        -0.694145   -0.957818   -2.111997
H         0.331443   -1.129686    0.609981
H         0.628321   -3.632804    0.305994
H        -1.069897   -3.195533    0.355912
H        -0.292743   -3.530841   -1.191060
H         2.525387   -2.708279    1.172425
H         4.800161   -2.499158    1.797851
H         4.951268   -0.883631    1.144063
H         5.972952   -2.207389   -0.644185
H         4.775693   -3.480946   -0.459668
H         4.326217   -0.705912   -1.685695
H         3.755498   -2.250855   -2.283089
