65
0 1
N         2.411650    0.710596    0.520804
C         3.192788   -0.372962    1.109427
C         3.520877   -1.591804    0.221696
O         4.681606   -1.971889    0.127150
N         2.504905   -2.269469   -0.399787
C         1.050543   -2.113044   -0.268183
C         0.554443   -2.652512    1.104323
O         1.279276   -3.333094    1.813272
C         0.533406   -3.007925   -1.432131
C         1.542623   -4.165831   -1.464199
C         2.880699   -3.484331   -1.156797
N        -0.775510   -2.472126    1.477448
C        -1.755302   -1.442197    1.129695
C        -1.196257   -0.017272    1.425385
O        -0.074340    0.137544    1.899064
C        -2.325358   -1.600763   -0.320990
C        -3.669176   -0.943282   -0.573179
C        -3.790482    0.124966   -1.477353
C        -4.825489   -1.401629    0.078035
C        -5.031532    0.721532   -1.714420
C        -6.064045   -0.806095   -0.157809
C        -6.171284    0.259678   -1.055073
N        -2.017794    1.029231    1.135536
C        -1.440007    2.365893    0.915545
C        -0.313885    2.177589   -0.177709
O        -0.436036    1.271037   -1.001541
C        -1.077085    3.023089    2.261724
N         0.809767    2.948728   -0.149216
C         1.944169    2.579067   -1.040646
C         2.747578    1.312732   -0.645103
O         3.678584    0.966409   -1.361161
C         2.868260    3.820288   -0.989629
C         1.907359    4.974454   -0.672393
C         0.943999    4.340236    0.343347
H         1.582137    0.977063    1.016700
H         4.164166   -0.003747    1.433443
H         2.649851   -0.711346    1.989059
H         0.756554   -1.078104   -0.407157
H        -0.486646   -3.351308   -1.296416
H         0.569971   -2.432081   -2.358212
H         1.548642   -4.691862   -2.417835
H         1.300825   -4.894017   -0.690034
H         3.419138   -3.196795   -2.062220
H         3.551601   -4.105768   -0.568470
H        -0.906604   -2.868211    2.393318
H        -2.590487   -1.603858    1.813268
H        -1.601691   -1.233062   -1.040767
H        -2.428446   -2.673388   -0.481479
H        -2.906476    0.495612   -1.978079
H        -4.759233   -2.236633    0.765090
H        -5.104879    1.541866   -2.416573
H        -6.943649   -1.176330    0.352387
H        -7.132597    0.720596   -1.239346
H        -2.856337    0.829730    0.621073
H        -2.234086    2.951756    0.447218
H        -0.983851    4.101804    2.186096
H        -0.161059    2.617761    2.677732
H        -1.877439    2.822464    2.970570
H         1.570180    2.411045   -2.050059
H         3.421199    3.944367   -1.916399
H         3.602844    3.711457   -0.190040
H         2.404469    5.858294   -0.274451
H         1.358479    5.277353   -1.566233
H        -0.018573    4.843232    0.368830
H         1.367079    4.364069    1.349844
