160
0 1
N        -3.215762   -2.544320   -0.267267
C        -4.018977   -2.931341   -1.452052
C        -5.422115   -2.270691   -1.218547
C        -5.284008   -1.411240    0.056767
C        -4.081578   -1.989260    0.801513
C        -3.501272   -2.677694   -2.886632
O        -3.836979   -3.504486   -3.736525
N        -2.759956   -1.588704   -3.241022
C        -2.217286   -0.482753   -2.434075
C        -1.157162    0.118063   -3.397975
C        -1.810316   -0.041426   -4.777978
C        -2.486333   -1.413507   -4.689667
C        -3.336234    0.519569   -2.054351
O        -4.429069    0.501305   -2.607339
N        -3.073286    1.374946   -1.009488
C        -1.765642    1.921690   -0.630388
C        -1.522618    3.322427   -1.295429
C        -2.709531    4.265698   -1.328388
C        -2.887898    5.261540   -0.357539
C        -3.982990    6.123552   -0.410348
C        -4.927533    6.004557   -1.432104
C        -4.760920    5.022045   -2.408520
C        -3.658260    4.167454   -2.359212
C        -1.611934    1.991239    0.906204
O        -1.926693    2.996781    1.545806
N        -1.067786    0.885020    1.482359
C        -0.687473    0.830619    2.899201
C        -1.473562   -0.237994    3.686203
C        -2.986172   -0.105453    3.758268
C        -3.696788    1.074899    3.506717
C        -5.092367    1.099938    3.593564
C        -5.803585   -0.044063    3.952188
C        -5.104327   -1.221592    4.230714
C        -3.715346   -1.248688    4.129771
C         0.838616    0.525289    3.020247
O         1.231720   -0.508898    3.571079
N         1.749881    1.404400    2.520446
C         1.596979    2.680195    1.815213
C         2.333799    3.806366    2.573701
C         2.101468    5.231564    2.006900
C         0.676537    5.739925    2.311070
C         3.160122    6.207913    2.556787
C         2.024110    2.453275    0.333643
O         1.239989    1.947164   -0.473389
N         3.285392    2.808853   -0.019471
C         3.830556    2.535113   -1.359627
C         4.700075    3.710017   -1.874636
C         4.225867    3.014496   -4.346857
C         5.826688    4.143917   -0.912351
C         5.266261    3.428519   -3.291197
C         4.534020    1.143751   -1.303613
O         5.746871    1.015943   -1.226132
N         3.631001    0.105769   -1.348179
C         3.815046   -1.203891   -0.695950
C         5.159604   -1.944160   -1.051421
C         4.873379   -3.427502   -1.410072
C         6.248122   -1.820760    0.031235
C         6.064440   -4.175247   -2.031909
C         3.578956   -0.965687    0.820855
O         4.050569    0.035865    1.370898
N         2.820244   -1.841452    1.525689
C         2.045875   -2.990378    1.086721
C         1.546526   -3.773812    2.341304
C         2.543711   -4.785062    2.964488
C         3.856142   -4.151496    3.466015
C         2.822373   -5.981454    2.030893
C         0.835960   -2.595433    0.183687
O         0.444776   -1.440992    0.027066
N         0.283269   -3.673166   -0.437798
C        -1.077473   -3.681846   -0.972363
C        -1.436287   -5.115748   -1.469888
C        -1.498464   -6.161315   -0.336667
C        -0.499438   -5.556902   -2.613879
C        -2.043619   -3.132365    0.130840
O        -1.713336   -3.164760    1.314382
H        -4.162691   -4.009904   -1.442559
H        -5.734584   -1.678376   -2.072349
H        -6.157916   -3.062113   -1.085452
H        -6.179597   -1.436413    0.674843
H        -5.109199   -0.371648   -0.199091
H        -4.367026   -2.778165    1.500194
H        -3.533123   -1.246106    1.367023
H        -1.747716   -0.853950   -1.530547
H        -0.244586   -0.475665   -3.322062
H        -0.886995    1.144607   -3.173666
H        -2.555274    0.739084   -4.933051
H        -1.094817    0.019360   -5.596376
H        -1.836965   -2.218536   -5.039597
H        -3.411077   -1.479046   -5.257681
H        -3.847500    1.996427   -0.829339
H        -0.995419    1.255792   -0.991411
H        -1.208148    3.128034   -2.321622
H        -0.671111    3.786867   -0.806981
H        -2.172336    5.355512    0.444124
H        -4.098399    6.886800    0.348572
H        -5.778839    6.671805   -1.469206
H        -5.480819    4.921183   -3.210257
H        -3.538569    3.418209   -3.130905
H        -0.725057    0.133992    0.902424
H        -0.881936    1.821153    3.307332
H        -1.068819   -0.257686    4.700545
H        -1.231996   -1.213124    3.265882
H        -3.182809    1.979321    3.223249
H        -5.618526    2.021144    3.377979
H        -6.883655   -0.020172    4.017947
H        -5.639572   -2.118662    4.515413
H        -3.185542   -2.173723    4.319370
H         2.691030    1.026791    2.517079
H         0.546263    2.931242    1.777535
H         1.996073    3.770743    3.612034
H         3.404130    3.584585    2.624413
H         2.223038    5.194196    0.919931
H        -0.099758    5.067162    1.952765
H         0.525392    5.860863    3.385365
H         0.502566    6.711103    1.847914
H         3.006883    7.216185    2.172287
H         3.120864    6.265809    3.646071
H         4.171460    5.904551    2.282644
H         3.951478    3.010771    0.702330
H         2.959423    2.456286   -2.004082
H         4.003966    4.552516   -1.963989
H         3.805634    2.027824   -4.153653
H         4.678874    2.972989   -5.337018
H         3.396511    3.722158   -4.400824
H         6.526047    3.335123   -0.723894
H         5.441943    4.494845    0.045932
H         6.381223    4.979866   -1.338351
H         5.765415    4.340135   -3.628941
H         6.042647    2.666632   -3.224843
H         2.664327    0.395247   -1.325128
H         3.000702   -1.805244   -1.090697
H         5.528553   -1.461265   -1.956323
H         4.034723   -3.471039   -2.111243
H         4.549032   -3.967806   -0.515621
H         6.420357   -0.786610    0.302738
H         7.192455   -2.226057   -0.326432
H         5.979384   -2.371328    0.934305
H         5.771509   -5.176492   -2.347739
H         6.893809   -4.288306   -1.336230
H         6.443328   -3.653597   -2.911782
H         2.577725   -1.493537    2.445402
H         2.679346   -3.645923    0.490502
H         1.237131   -3.041802    3.086361
H         0.631541   -4.304495    2.088125
H         2.022423   -5.182988    3.842351
H         4.453708   -4.883719    4.009807
H         4.470428   -3.776126    2.648945
H         3.668770   -3.316884    4.140655
H         1.899116   -6.464066    1.705059
H         3.421350   -6.740615    2.533520
H         3.377340   -5.691139    1.137161
H         0.635867   -4.567294   -0.150030
H        -1.106340   -3.017178   -1.831862
H        -2.430554   -5.051523   -1.906589
H        -0.522287   -6.376093    0.101850
H        -2.152467   -5.850914    0.475261
H        -1.874152   -7.107489   -0.723617
H         0.535944   -5.669282   -2.292077
H        -0.819205   -6.517169   -3.016637
H        -0.514447   -4.839652   -3.433557
