160
0 1
N         2.699078   -1.853469   -2.761566
C         1.564843   -2.679825   -2.251559
C         1.248585   -3.624770   -3.433311
C         1.779396   -2.865011   -4.664588
C         3.071697   -2.223603   -4.134827
C         2.073465   -3.435567   -0.993508
O         3.227653   -3.855253   -0.966389
N         1.232577   -3.605157    0.057691
C        -0.230057   -3.494730    0.085644
C        -0.600763   -4.468813    1.241515
C         0.558366   -4.264975    2.231687
C         1.783715   -4.161497    1.315348
C        -0.705620   -2.058374    0.416558
O         0.076127   -1.197497    0.809184
N        -2.042813   -1.806958    0.323916
C        -3.111620   -2.625664   -0.239235
C        -4.373166   -2.573566    0.665517
C        -4.106019   -3.264470    1.984299
C        -4.359195   -4.634019    2.141349
C        -4.016346   -5.293975    3.322392
C        -3.410180   -4.591368    4.366024
C        -3.164201   -3.223757    4.225955
C        -3.514886   -2.566042    3.046755
C        -3.301335   -2.371476   -1.766323
O        -2.695086   -3.113667   -2.535343
N        -4.163166   -1.439289   -2.326239
C        -4.772612   -0.140323   -1.946599
C        -6.171654   -0.226887   -1.281705
C        -6.773389    1.158273   -1.146918
C        -6.641060    1.888546    0.042479
C        -7.127409    3.193415    0.135458
C        -7.755124    3.789639   -0.959752
C        -7.900579    3.069128   -2.146995
C        -7.413115    1.764882   -2.237159
C        -3.793872    0.724115   -1.120870
O        -3.646030    0.537380    0.086481
N        -3.146821    1.697309   -1.819369
C        -1.837565    2.223283   -1.401356
C        -1.856436    2.882820   -0.003354
C        -3.029399    3.866646    0.230751
C        -2.989874    4.382390    1.682986
C        -3.031299    5.040051   -0.767930
C        -0.814059    1.045965   -1.581322
O        -1.220393   -0.046071   -1.980089
N         0.506716    1.212371   -1.321503
C         1.377329    2.351701   -1.023689
C         1.224758    3.587365   -1.961330
C         2.033159    2.282501   -4.104130
C         2.461289    4.513733   -1.871237
C         0.972964    3.181737   -3.444311
C         1.486117    2.652720    0.510545
O         1.832496    3.757545    0.930097
N         1.335603    1.564505    1.308095
C         1.807066    1.540634    2.701760
C         0.687178    1.721588    3.768952
C        -0.538722    0.803270    3.540799
C         0.289098    3.208519    3.872230
C        -1.483188    0.717979    4.751604
C         2.630631    0.238064    2.921730
O         2.216391   -0.696552    3.598846
N         3.889534    0.184523    2.377971
C         4.587377    1.014042    1.394667
C         5.894092    1.610313    1.982911
C         5.697416    2.652610    3.108199
C         5.178438    4.002229    2.570371
C         7.013958    2.850041    3.887512
C         4.955919    0.065388    0.216412
O         5.310759   -1.077282    0.449329
N         4.917363    0.613898   -1.049011
C         4.593521   -0.201659   -2.235940
C         5.790590   -1.010359   -2.836552
C         7.029211   -0.098020   -2.949692
C         6.143032   -2.349457   -2.163306
C         3.250707   -0.957869   -1.911754
O         2.654700   -0.675589   -0.865024
H         0.716762   -2.034663   -2.037167
H         0.185096   -3.846421   -3.492705
H         1.788567   -4.564924   -3.315792
H         1.073800   -2.089503   -4.967658
H         1.957306   -3.508580   -5.525323
H         3.892988   -2.943195   -4.141759
H         3.374480   -1.349822   -4.708832
H        -0.656120   -3.810691   -0.863547
H        -0.608058   -5.490847    0.857814
H        -1.571450   -4.273539    1.681546
H         0.425227   -3.339815    2.790948
H         0.643360   -5.076312    2.952665
H         2.242016   -5.132822    1.121749
H         2.557481   -3.501470    1.701736
H        -2.293088   -0.846588    0.498585
H        -2.781519   -3.658058   -0.239583
H        -4.650369   -1.538962    0.834280
H        -5.196524   -3.056978    0.137851
H        -4.817317   -5.188694    1.331126
H        -4.219297   -6.352128    3.425409
H        -3.136631   -5.102667    5.279544
H        -2.698077   -2.669529    5.029780
H        -3.319387   -1.507927    2.945520
H        -4.066313   -1.530051   -3.324231
H        -4.937460    0.353334   -2.904410
H        -6.103040   -0.707375   -0.312500
H        -6.793971   -0.865880   -1.909442
H        -6.145139    1.439158    0.891162
H        -7.015906    3.740764    1.062301
H        -8.132010    4.801328   -0.887557
H        -8.395598    3.518425   -2.998201
H        -7.536986    1.211262   -3.160677
H        -3.254231    1.644574   -2.816320
H        -1.594673    2.993695   -2.130191
H        -1.873624    2.113277    0.760165
H        -0.923752    3.428132    0.126622
H        -3.964212    3.319096    0.103498
H        -3.840393    5.032235    1.891596
H        -2.084569    4.957387    1.883513
H        -3.020657    3.562014    2.399501
H        -3.846709    5.731142   -0.554071
H        -2.101714    5.611130   -0.718452
H        -3.165186    4.710102   -1.797752
H         1.004725    0.332386   -1.336548
H         2.366298    1.947042   -1.239530
H         0.365484    4.179157   -1.636721
H         3.035113    2.705790   -4.046399
H         2.055973    1.290679   -3.656945
H         1.808454    2.145585   -5.161632
H         3.386844    3.979252   -2.092827
H         2.560826    4.942923   -0.882840
H         2.380698    5.324028   -2.595989
H         0.006914    2.690858   -3.554165
H         0.890730    4.108759   -4.017069
H         0.981201    0.696061    0.935439
H         2.483291    2.386196    2.803310
H         1.144146    1.429330    4.719081
H        -0.194727   -0.196808    3.296105
H        -1.097660    1.156404    2.671972
H        -0.436398    3.372202    4.667149
H        -0.148712    3.572949    2.945758
H         1.149679    3.841502    4.086609
H        -2.312100    0.038880    4.551759
H        -0.962370    0.340976    5.632978
H        -1.922819    1.678898    5.018023
H         4.307165   -0.729365    2.474879
H         3.934623    1.810556    1.060159
H         6.472336    2.059238    1.168738
H         6.492966    0.772648    2.346839
H         4.958425    2.249611    3.808202
H         5.900368    4.452517    1.885392
H         4.232176    3.920392    2.039878
H         5.021847    4.711576    3.383402
H         6.892274    3.573099    4.694491
H         7.809936    3.220464    3.238185
H         7.362553    1.917627    4.332259
H         4.537632    1.543064   -1.086408
H         4.340721    0.533247   -3.003810
H         5.484529   -1.236231   -3.860338
H         6.811941    0.834501   -3.473764
H         7.821311   -0.604987   -3.500546
H         7.421218    0.160608   -1.968243
H         5.269871   -2.967349   -1.977395
H         6.629218   -2.201733   -1.205555
H         6.823737   -2.905466   -2.810225
