160
0 1
N        -2.431074    3.161220   -1.870738
C        -2.930715    3.188431   -0.479777
C        -4.222204    4.051846   -0.593919
C        -4.721283    3.755062   -2.013151
C        -3.429619    3.707696   -2.825734
C        -3.222391    1.760643    0.045351
O        -3.209195    0.820781   -0.761945
N        -3.431111    1.593178    1.375536
C        -3.145847    0.288849    2.077201
C        -3.009256    0.691343    3.555766
C        -3.835863    1.979074    3.671337
C        -3.508552    2.700224    2.362603
C        -4.117516   -0.908209    1.870565
O        -4.336821   -1.697190    2.795994
N        -4.535865   -1.100795    0.602978
C        -5.018503   -2.402819    0.140792
C        -5.982561   -2.237293   -1.051650
C        -7.065222   -1.219154   -0.769875
C        -8.184134   -1.547494    0.006522
C        -9.152759   -0.589737    0.308985
C        -9.019063    0.717243   -0.164538
C        -7.911555    1.055592   -0.944474
C        -6.945097    0.094731   -1.242940
C        -3.737414   -3.203699   -0.258975
O        -3.376675   -3.302795   -1.424330
N        -3.064766   -3.714040    0.822315
C        -1.663856   -4.128639    0.806130
C        -1.375864   -5.242558   -0.286514
C        -0.102180   -5.066054   -1.086240
C         1.001773   -5.900098   -0.884076
C         2.190313   -5.700715   -1.590492
C         2.291611   -4.654722   -2.505028
C         1.186080   -3.829904   -2.732835
C        -0.004335   -4.038858   -2.040427
C        -0.707900   -2.891547    0.731369
O        -1.060327   -1.796481    0.297525
N         0.530706   -3.144300    1.222581
C         1.690876   -2.288062    0.966221
C         1.753602   -1.086573    1.949445
C         1.873417   -1.365146    3.466448
C         1.729033   -0.029965    4.229775
C         3.177541   -2.073579    3.887736
C         2.908197   -3.240583    0.957564
O         2.794961   -4.410365    1.324487
N         4.115642   -2.806740    0.490394
C         4.661595   -1.487356    0.206712
C         6.213378   -1.606172   -0.012033
C         8.011276   -2.362050   -1.704641
C         6.929228   -1.922251    1.317638
C         6.592495   -2.587765   -1.153933
C         4.014012   -0.823038   -1.034621
O         3.474825   -1.466560   -1.922876
N         4.118223    0.551322   -1.127152
C         4.753505    1.524033   -0.228300
C         5.730639    2.452721   -1.028393
C         6.655610    3.301244   -0.119730
C         5.005812    3.355974   -2.047311
C         7.505532    2.508149    0.886105
C         3.756197    2.336473    0.642403
O         4.125014    2.835083    1.700501
N         2.507586    2.481856    0.115843
C         1.394546    3.112447    0.843942
C         1.039541    4.541473    0.358819
C         2.135877    5.614531    0.570571
C         1.727910    6.917942   -0.147073
C         2.436870    5.874218    2.059326
C         0.179365    2.158017    0.882909
O        -0.284221    1.825642    1.974042
N        -0.337915    1.663858   -0.280322
C        -0.098681    2.027159   -1.676303
C         0.353426    0.747387   -2.483239
C         1.261296    1.078480   -3.684701
C        -0.809969   -0.169725   -2.903067
C        -1.227072    2.801253   -2.422667
O        -0.994891    3.087528   -3.596912
H        -2.205736    3.666825    0.175077
H        -4.963026    3.815189    0.164515
H        -3.966038    5.106971   -0.484934
H        -5.223310    2.788316   -2.039695
H        -5.421782    4.502578   -2.381889
H        -3.122796    4.699215   -3.166991
H        -3.489876    3.072587   -3.705517
H        -2.197782   -0.084868    1.693593
H        -1.965405    0.896156    3.779648
H        -3.355239   -0.105560    4.205781
H        -4.902273    1.750546    3.719080
H        -3.584826    2.579775    4.544203
H        -2.548389    3.213916    2.436910
H        -4.268561    3.424723    2.084902
H        -4.104884   -0.504047   -0.100368
H        -5.529188   -2.879774    0.975035
H        -6.412150   -3.214786   -1.277641
H        -5.404012   -1.954858   -1.929698
H        -8.297435   -2.558568    0.378650
H       -10.010693   -0.864071    0.909408
H        -9.771581    1.460012    0.066623
H        -7.803344    2.063890   -1.324408
H        -6.086409    0.362128   -1.845174
H        -3.418979   -3.433869    1.723445
H        -1.487654   -4.583515    1.781380
H        -1.364622   -6.206466    0.221378
H        -2.219881   -5.254932   -0.965765
H         0.943091   -6.699398   -0.155745
H         3.036536   -6.349595   -1.406270
H         3.217771   -4.475881   -3.033819
H         1.258604   -3.021803   -3.447622
H        -0.860461   -3.407095   -2.223697
H         0.794411   -4.089855    1.455571
H         1.592057   -1.879287   -0.040186
H         2.552544   -0.409548    1.643668
H         0.834102   -0.533397    1.779334
H         1.034264   -2.009312    3.748578
H         2.557124    0.644797    4.000819
H         1.730576   -0.191544    5.308045
H         0.812941    0.493486    3.966924
H         3.240391   -2.140807    4.974252
H         3.251652   -3.086573    3.504622
H         4.058524   -1.520242    3.555519
H         4.767547   -3.569837    0.468193
H         4.508956   -0.846286    1.073344
H         6.547880   -0.616563   -0.329040
H         8.126802   -1.352533   -2.101820
H         8.224522   -3.055892   -2.516749
H         8.782461   -2.506479   -0.948979
H         8.009558   -1.935094    1.188939
H         6.640735   -2.891736    1.722523
H         6.704686   -1.174256    2.077612
H         6.512558   -3.621730   -0.807206
H         5.876628   -2.495151   -1.969975
H         3.823268    0.881247   -2.031271
H         5.350148    0.979953    0.491329
H         6.368901    1.760004   -1.588624
H         7.320673    3.861513   -0.781889
H         6.066449    4.045665    0.416220
H         4.399820    2.803054   -2.764991
H         4.353384    4.077044   -1.558285
H         5.731213    3.918779   -2.632957
H         8.245411    3.155873    1.354918
H         8.050793    1.692762    0.406873
H         6.899691    2.091545    1.687875
H         2.284751    1.874719   -0.648972
H         1.706460    3.171641    1.881190
H         0.765265    4.523729   -0.695700
H         0.137207    4.848618    0.897673
H         3.055526    5.252642    0.100700
H         2.500487    7.680400   -0.048714
H         0.809224    7.333057    0.272281
H         1.557723    6.759716   -1.212690
H         3.169467    6.673807    2.169975
H         1.538165    6.182203    2.597738
H         2.848409    4.998068    2.552780
H        -0.944096    0.870958   -0.147568
H         0.730170    2.726225   -1.704893
H         0.962520    0.186045   -1.768903
H         2.039974    1.800262   -3.425345
H         1.758010    0.171933   -4.028479
H         0.702246    1.508204   -4.509488
H        -1.475456    0.330403   -3.603770
H        -1.400669   -0.519333   -2.063311
H        -0.413919   -1.051524   -3.403501
