160
0 1
N         1.954215    3.219695   -1.036925
C         1.002468    3.805047   -0.065903
C         1.710530    5.123808    0.351513
C         2.534965    5.501377   -0.888677
C         3.054387    4.145426   -1.374874
C        -0.362186    4.072736   -0.751777
O        -0.438214    4.214307   -1.966450
N        -1.466334    4.182937    0.062505
C        -1.441676    4.545170    1.498247
C        -2.354508    5.802970    1.514637
C        -3.481851    5.391332    0.553505
C        -2.730318    4.662415   -0.575376
C        -1.979462    3.574176    2.587142
O        -1.888416    3.969520    3.746639
N        -2.668398    2.428628    2.295018
C        -2.461410    1.430480    1.250718
C        -1.140592    0.606582    1.497715
C        -1.115346   -0.076281    2.844823
C        -1.673277   -1.351350    3.021875
C        -1.726943   -1.943655    4.284065
C        -1.217708   -1.270389    5.395829
C        -0.649106   -0.005976    5.232558
C        -0.596354    0.583829    3.968826
C        -3.651901    0.456353    1.335939
O        -4.323889    0.385624    2.358347
N        -3.813644   -0.499689    0.342466
C        -3.851775   -0.346208   -1.131366
C        -5.162083    0.346352   -1.604615
C        -6.377155   -0.482359   -1.251374
C        -6.790720   -1.523027   -2.097888
C        -7.864964   -2.343594   -1.754596
C        -8.547337   -2.136925   -0.553191
C        -8.148227   -1.104402    0.296563
C        -7.072463   -0.283655   -0.049776
C        -2.619775    0.372761   -1.722214
O        -2.655194    1.580963   -1.949009
N        -1.506388   -0.361073   -1.987531
C        -1.281341   -1.813752   -1.904650
C        -2.073284   -2.579357   -3.015298
C        -2.309792   -4.084252   -2.753899
C        -2.727659   -4.789771   -4.060088
C        -3.363327   -4.327288   -1.651902
C         0.230196   -2.022968   -2.190912
O         0.667457   -1.621783   -3.278295
N         1.049542   -2.670335   -1.327022
C         0.932719   -2.987674    0.114912
C         0.109096   -4.292810    0.379957
C         0.995044   -5.444671    2.600773
C         0.553090   -5.521632   -0.432929
C        -0.077770   -4.595221    1.896311
C         2.408441   -3.074668    0.600106
O         3.076499   -4.070033    0.351226
N         3.004923   -1.995987    1.209301
C         2.477142   -0.818811    1.876189
C         2.742957   -0.836243    3.432030
C         4.199117   -0.519055    3.877092
C         2.195477   -2.120977    4.068927
C         5.277804   -1.606922    3.713662
C         2.892584    0.578715    1.346130
O         2.355457    1.547192    1.888915
N         3.861274    0.842583    0.402723
C         4.669126    0.149097   -0.633916
C         5.858252   -0.665216   -0.094229
C         6.999958   -0.888185   -1.120982
C         7.765165    0.409895   -1.450522
C         7.966923   -1.968124   -0.595475
C         3.800312   -0.669804   -1.623784
O         3.903957   -1.895832   -1.697368
N         2.925590    0.005668   -2.408950
C         2.716823    1.437613   -2.621170
C         2.150400    1.614649   -4.074209
C         3.155950    1.082138   -5.116051
C         1.736703    3.057613   -4.417807
C         1.726432    1.986833   -1.557251
O         0.763668    1.302740   -1.208524
H         0.896955    3.131488    0.776251
H         2.360088    4.927380    1.205927
H         1.019363    5.911986    0.640102
H         3.337983    6.205706   -0.676804
H         1.890811    5.939918   -1.649952
H         3.974011    3.869647   -0.844722
H         3.274712    4.149509   -2.435787
H        -0.438277    4.791195    1.823703
H        -1.796699    6.650622    1.109774
H        -2.683848    6.063032    2.515874
H        -4.179931    4.723130    1.058304
H        -4.056248    6.237715    0.179735
H        -2.471048    5.330469   -1.394554
H        -3.273328    3.826103   -1.006102
H        -3.057959    2.018303    3.131744
H        -2.387290    1.905154    0.283438
H        -1.033361   -0.108199    0.686980
H        -0.306892    1.294113    1.401626
H        -2.082890   -1.876219    2.169710
H        -2.165932   -2.926291    4.397096
H        -1.260085   -1.727275    6.375781
H        -0.248002    0.524583    6.086125
H        -0.153783    1.562639    3.855783
H        -4.542967   -1.130997    0.642545
H        -3.876889   -1.367625   -1.496249
H        -5.100112    0.489307   -2.684063
H        -5.210971    1.342191   -1.167671
H        -6.271937   -1.685266   -3.035287
H        -8.171376   -3.136808   -2.424283
H        -9.381833   -2.771484   -0.285242
H        -8.671185   -0.934413    1.228586
H        -6.768271    0.507920    0.621933
H        -0.709951    0.209172   -2.231471
H        -1.559572   -2.168198   -0.914181
H        -1.528030   -2.432300   -3.946105
H        -3.037460   -2.094810   -3.168811
H        -1.366304   -4.531460   -2.431345
H        -2.899068   -5.854266   -3.899351
H        -3.652001   -4.368945   -4.461086
H        -1.962746   -4.691878   -4.830081
H        -3.114550   -3.840034   -0.709567
H        -3.471630   -5.390474   -1.437954
H        -4.344566   -3.957129   -1.955472
H         1.984429   -2.774098   -1.703977
H         0.407330   -2.169473    0.603647
H        -0.888020   -4.030569    0.020206
H         0.766436   -5.521524    3.663766
H         1.031034   -6.458527    2.205645
H         1.994218   -5.031837    2.507110
H         1.519532   -5.899058   -0.121843
H         0.627076   -5.290653   -1.493320
H        -0.181962   -6.320035   -0.323568
H        -0.200042   -3.653559    2.431709
H        -1.036336   -5.109614    2.006799
H         3.959967   -2.223114    1.419937
H         1.397881   -0.829021    1.760341
H         2.141063   -0.009683    3.803327
H         4.536964    0.398351    3.391791
H         4.142714   -0.269928    4.939855
H         2.711618   -3.016948    3.733606
H         1.138927   -2.246981    3.851854
H         2.293187   -2.074776    5.153232
H         5.531188   -1.815063    2.676069
H         6.204721   -1.287609    4.190027
H         4.991446   -2.549720    4.176242
H         3.947418    1.843000    0.357440
H         5.082349    0.983909   -1.198204
H         5.503661   -1.639601    0.227002
H         6.254603   -0.149836    0.782917
H         6.552386   -1.269989   -2.042438
H         7.128254    1.185461   -1.877307
H         8.555302    0.223078   -2.177625
H         8.236382    0.829854   -0.559601
H         8.426265   -1.667486    0.348590
H         8.774239   -2.156685   -1.303215
H         7.451923   -2.913239   -0.426004
H         2.294694   -0.604585   -2.918330
H         3.679062    1.944805   -2.563218
H         1.248627    0.998129   -4.117319
H         2.737768    1.164054   -6.118666
H         3.419842    0.039404   -4.958455
H         4.080685    1.662994   -5.102666
H         1.258134    3.071543   -5.396519
H         1.030423    3.479655   -3.709207
H         2.601116    3.720328   -4.489466
