121
0 1
N         2.771466   -0.789233   -1.290225
C         2.540925   -2.145470   -0.792949
C         2.797303   -2.078507    0.745575
N         2.109216   -2.899822    1.574970
C         1.359468   -4.121869    1.223515
C        -0.068055   -3.926220    0.663401
N        -0.628130   -2.702913    0.807491
C        -1.969735   -2.436239    0.297641
C        -2.036426   -0.938058   -0.043437
N        -2.678815   -0.564247   -1.171644
C        -2.742449    0.876149   -1.514389
C        -3.591384    1.631761   -0.468141
N        -3.073412    2.741611    0.130608
C        -1.698337    3.207806    0.252086
C        -1.463223    3.501114    1.757972
N        -0.181344    3.576975    2.204664
C         1.063829    3.366917    1.461037
C         1.620146    1.934177    1.618627
N         2.422906    1.463566    0.596738
C         2.216812    1.571803   -0.864033
C         1.761811    0.151665   -1.311150
C         3.474972   -3.157660   -1.520611
C         4.943026   -2.807566   -1.408513
C         5.712232   -3.267304   -0.331321
C         7.050414   -2.898839   -0.199341
C         7.643148   -2.059291   -1.144690
C         6.890063   -1.598564   -2.225846
C         5.551818   -1.973180   -2.357459
O         3.579163   -1.233734    1.197148
C         2.252288   -2.723320    3.045395
C         1.271092   -3.756281    3.615891
C         1.313887   -4.886885    2.572214
O        -0.632671   -4.886772    0.144901
C        -3.068290   -2.812998    1.343964
C        -4.441644   -2.857977    0.717077
C        -4.864083   -4.003548    0.030066
C        -6.088036   -4.035747   -0.636401
C        -6.916681   -2.905230   -0.631440
O        -8.133116   -2.869810   -1.271189
C        -6.504777   -1.752668    0.048177
C        -5.284410   -1.738827    0.716851
O        -1.528098   -0.122497    0.734357
C        -3.246400   -1.407438   -2.242573
C        -3.127105   -0.504869   -3.476796
C        -3.429538    0.889427   -2.901245
O        -4.743046    1.272421   -0.242850
C        -1.446352    4.504208   -0.605809
C        -2.457297    5.629580   -0.272510
C        -2.094310    7.000018   -0.869503
C        -1.425464    4.166355   -2.107775
O        -2.414421    3.729287    2.505635
C         0.067593    4.042767    3.588753
C         1.591213    4.273663    3.653989
C         2.026615    4.356561    2.177464
O         1.519254    1.333163    2.679565
C         3.446154    2.134377   -1.633852
C         3.803083    3.553497   -1.134866
C         5.092588    4.140811   -1.732122
C         3.175185    2.090743   -3.151481
O         0.599296   -0.114432   -1.573691
H         3.673824   -0.452348   -0.999289
H         1.507204   -2.400049   -1.005027
H         1.887932   -4.705175    0.472956
H        -0.142774   -1.928532    1.227594
H        -2.106337   -3.076134   -0.566953
H        -1.723448    1.242655   -1.584489
H        -3.671648    3.107082    0.858081
H        -1.026045    2.416715   -0.064036
H         0.951449    3.639145    0.419575
H         2.909804    0.622560    0.889206
H         1.366630    2.220548   -1.055277
H         3.166310   -3.178591   -2.565810
H         3.293027   -4.157504   -1.125612
H         5.261862   -3.916154    0.409198
H         7.627674   -3.265043    0.639456
H         8.681504   -1.772706   -1.042651
H         7.343226   -0.956016   -2.969657
H         4.975397   -1.618817   -3.202201
H         3.282616   -2.926836    3.343373
H         2.033086   -1.692048    3.313904
H         1.552166   -4.085359    4.614558
H         0.266693   -3.336300    3.680856
H         2.225949   -5.475517    2.686590
H         0.472267   -5.573348    2.616859
H        -3.023288   -2.098308    2.166009
H        -2.801687   -3.790373    1.745435
H        -4.226345   -4.878834    0.006699
H        -6.395720   -4.936308   -1.155821
H        -8.304269   -3.723675   -1.690532
H        -7.134579   -0.875467    0.038123
H        -4.980443   -0.832016    1.217440
H        -2.696686   -2.337115   -2.353147
H        -4.286358   -1.651072   -2.023887
H        -2.110438   -0.547306   -3.871319
H        -3.809962   -0.796133   -4.274212
H        -3.064137    1.701376   -3.526726
H        -4.503550    1.016641   -2.773067
H        -0.453554    4.880494   -0.340188
H        -3.449912    5.332847   -0.617776
H        -2.540009    5.733882    0.809475
H        -2.106199    7.002074   -1.958761
H        -2.802109    7.761455   -0.542806
H        -1.101559    7.325708   -0.553212
H        -1.156117    5.031817   -2.710156
H        -2.402940    3.826929   -2.446782
H        -0.703992    3.381888   -2.338143
H        -0.505935    4.953376    3.761289
H        -0.275728    3.301616    4.307401
H         2.081871    3.436531    4.143208
H         1.844463    5.176571    4.207765
H         3.076118    4.114925    2.026518
H         1.856384    5.356223    1.773895
H         4.312751    1.497379   -1.420799
H         2.966410    4.230282   -1.338127
H         3.908945    3.516764   -0.051541
H         5.943788    3.477801   -1.570354
H         5.333199    5.095265   -1.264598
H         5.016026    4.320905   -2.803288
H         4.034549    2.436424   -3.721299
H         2.328918    2.725953   -3.419048
H         2.949619    1.083618   -3.496742
