121
0 1
N        -3.613780    0.212682   -0.211476
C        -4.246827    0.758327    1.010932
C        -3.062561    1.422674    1.778964
N        -2.398064    0.821171    2.799994
C        -1.067220    1.363960    3.136760
C        -0.103844    1.016535    1.977172
N         0.788662    1.960130    1.626844
C         1.751858    1.735746    0.561102
C         2.962016    2.645408    0.831550
N         4.122174    2.309762    0.203994
C         4.442043    0.993536   -0.362841
C         4.594984   -0.049262    0.776118
N         4.387499   -1.373695    0.486245
C         4.039106   -2.060055   -0.757497
C         2.584833   -2.617327   -0.946146
N         1.754644   -2.917952    0.097872
C         0.525061   -3.703948   -0.215459
C        -0.522296   -3.082249   -1.168647
N        -0.670712   -1.731494   -1.057458
C        -1.833310   -0.940277   -1.452915
C        -2.854226   -0.927615   -0.269613
C        -5.270847   -0.177279    1.692140
C        -6.421344   -0.491646    0.755529
C        -6.425047   -1.677345    0.009498
C        -7.459068   -1.949206   -0.887609
C        -8.506123   -1.040028   -1.050768
C        -8.514175    0.142463   -0.308058
C        -7.478820    0.412145    0.587799
O        -2.657431    2.493286    1.311599
C        -2.671570   -0.457434    3.500024
C        -1.367819   -0.759337    4.266222
C        -0.697771    0.616864    4.435117
O        -0.149358   -0.096402    1.437913
C         1.134961    2.038092   -0.850857
C         0.848245    3.498279   -1.102229
C        -0.350733    4.086515   -0.671557
C        -0.597620    5.441921   -0.865719
C         0.354600    6.245977   -1.503831
O         0.056370    7.576002   -1.671576
C         1.551766    5.670999   -1.947921
C         1.787778    4.312791   -1.744861
O         2.842603    3.664198    1.506353
C         5.322692    3.155822    0.383717
C         6.482005    2.278979   -0.122846
C         5.799678    1.263425   -1.060179
O         4.925452    0.300057    1.902809
C         5.052932   -3.213496   -1.091268
C         4.998381   -4.378572   -0.071310
C         5.794656   -5.626094   -0.493512
C         6.475160   -2.657133   -1.282089
O         2.246948   -2.831725   -2.108042
C         2.013593   -2.877528    1.559484
C         1.092428   -3.971499    2.123945
C        -0.109438   -3.954093    1.171251
O        -1.177942   -3.827071   -1.882102
C        -2.467845   -1.297746   -2.847436
C        -2.789359    0.005572   -3.627779
C        -3.248279   -0.217346   -5.078002
C        -3.695676   -2.223537   -2.747109
O        -2.948078   -1.852003    0.528300
H        -3.342389    0.943001   -0.845697
H        -4.815058    1.619415    0.663706
H        -1.121979    2.440480    3.279643
H         0.805500    2.874804    2.047028
H         2.016696    0.682470    0.589823
H         3.690654    0.688544   -1.085522
H         4.611871   -1.948746    1.279029
H         4.125561   -1.340479   -1.565916
H         0.822497   -4.638382   -0.691681
H        -0.147044   -1.290282   -0.318104
H        -1.447099    0.076988   -1.533681
H        -4.815657   -1.098578    2.026666
H        -5.637970    0.346466    2.577935
H        -5.613104   -2.380956    0.127409
H        -7.444771   -2.869731   -1.456628
H        -9.308562   -1.251669   -1.745388
H        -9.325331    0.850232   -0.421428
H        -7.495876    1.330374    1.163408
H        -2.899829   -1.245070    2.793094
H        -3.515279   -0.332097    4.181457
H        -0.736022   -1.413242    3.670494
H        -1.558604   -1.255600    5.216657
H         0.378418    0.558132    4.590807
H        -1.120258    1.154318    5.285471
H         0.225905    1.444779   -0.924705
H         1.809140    1.649307   -1.614636
H        -1.099836    3.488133   -0.173686
H        -1.523361    5.888006   -0.530889
H         0.792652    8.023013   -2.110129
H         2.295379    6.277809   -2.451662
H         2.719969    3.885948   -2.093075
H         5.430213    3.441694    1.427110
H         5.205646    4.072834   -0.196643
H         7.252465    2.858967   -0.628087
H         6.951272    1.761214    0.711249
H         5.609717    1.703238   -2.040561
H         6.384900    0.360662   -1.213769
H         4.710854   -3.604980   -2.051393
H         3.959023   -4.676720    0.075158
H         5.363856   -4.046911    0.906130
H         6.866994   -5.443125   -0.536198
H         5.637363   -6.440406    0.212985
H         5.480435   -5.981402   -1.475319
H         6.883149   -2.246062   -0.358660
H         6.491880   -1.868404   -2.033745
H         7.160345   -3.429143   -1.625191
H         3.048018   -3.094272    1.797372
H         1.766753   -1.894643    1.958525
H         0.824892   -3.784304    3.163466
H         1.598730   -4.938465    2.086134
H        -0.687944   -4.874992    1.177901
H        -0.790884   -3.142771    1.419948
H        -1.688727   -1.822204   -3.399886
H        -3.560929    0.576339   -3.100481
H        -1.898079    0.640050   -3.640807
H        -3.358322    0.733304   -5.599741
H        -4.207621   -0.728442   -5.134833
H        -2.524474   -0.814010   -5.634885
H        -3.485920   -3.083532   -2.121753
H        -3.971259   -2.602861   -3.729151
H        -4.561792   -1.698843   -2.344408
