121
0 1
N         3.486666   -1.625160   -0.157559
C         3.280803   -0.186092   -0.083166
C         3.516912    0.366808   -1.512821
N         3.040873    1.608653   -1.795716
C         2.016981    2.378097   -1.079150
C         0.589443    1.936970   -1.519231
N        -0.454816    2.197085   -0.661690
C        -0.378341    2.238961    0.808870
C        -1.437284    1.263283    1.414170
N        -2.691004    1.227641    0.863225
C        -3.441214   -0.029322    0.746140
C        -3.495132   -0.399128   -0.766076
N        -3.930735   -1.657857   -1.113855
C        -3.804308   -2.920600   -0.371509
C        -2.319215   -3.248899   -0.034152
N        -1.383135   -3.362400   -1.018468
C         0.035944   -3.130276   -0.635797
C         0.060560   -1.750997    0.065876
N         0.824034   -1.538829    1.172442
C         1.976216   -2.269820    1.717731
C         2.933988   -2.655884    0.553780
C         4.259321    0.506389    0.931784
C         5.716226    0.363277    0.561631
C         6.440806   -0.777690    0.932129
C         7.772971   -0.931482    0.547301
C         8.403512    0.057236   -0.210078
C         7.693837    1.201936   -0.577395
C         6.361721    1.351469   -0.193533
O         4.197276   -0.267767   -2.315937
C         3.396001    2.239731   -3.088106
C         2.678593    3.607142   -3.060973
C         2.303506    3.817452   -1.578638
O         0.408226    1.491917   -2.643731
C        -0.263170    3.667394    1.429869
C        -1.348587    4.681951    1.160313
C        -1.601259    5.170943   -0.132139
C        -2.610662    6.096660   -0.373568
C        -3.393839    6.576008    0.685028
O        -4.375500    7.485920    0.387026
C        -3.139853    6.119797    1.984096
C        -2.127100    5.187124    2.208579
O        -1.058563    0.462250    2.268712
C        -3.580342    2.391798    0.607458
C        -5.012287    1.791855    0.602384
C        -4.856216    0.380035    1.211228
O        -3.322603    0.448246   -1.634802
C        -4.605322   -4.052725   -1.072852
C        -6.123104   -3.734176   -1.040473
C        -6.984843   -4.629676   -1.945740
C        -4.281247   -5.416562   -0.431545
O        -2.002253   -3.305193    1.155453
C        -1.558667   -3.345887   -2.483457
C        -0.289222   -2.657063   -2.999770
C         0.780839   -3.113502   -1.994206
O        -0.649524   -0.847541   -0.376428
C         1.633006   -3.455172    2.659826
C         0.481242   -3.103894    3.637824
C         0.740992   -1.948468    4.621628
C         2.901854   -3.935426    3.396902
O         3.177839   -3.821569    0.261337
H         4.071808   -1.907095   -0.930838
H         2.263454    0.014144    0.231973
H         2.159931    2.310283   -0.006017
H        -1.319056    1.822998   -1.030170
H         0.541486    1.750385    1.118700
H        -2.989546   -0.804450    1.352805
H        -4.007840   -1.736115   -2.114736
H        -4.245284   -2.782649    0.614967
H         0.393339   -3.920468    0.014449
H         0.515180   -0.722285    1.681112
H         2.501025   -1.527678    2.321918
H         3.992816    1.561083    1.011635
H         4.073209    0.072961    1.915235
H         5.961850   -1.547772    1.522014
H         8.316457   -1.819953    0.841367
H         9.437370   -0.060880   -0.506944
H         8.175373    1.976524   -1.160117
H         5.817202    2.241166   -0.483744
H         3.072527    1.616005   -3.917840
H         4.480868    2.329743   -3.147177
H         3.307950    4.409558   -3.442389
H         1.781442    3.572457   -3.673874
H         1.461628    4.492404   -1.438274
H         3.146607    4.222544   -1.016301
H         0.694542    4.067809    1.087678
H        -0.149809    3.524608    2.506076
H        -1.016341    4.809919   -0.964948
H        -2.802428    6.460233   -1.373097
H        -4.837691    7.748933    1.194325
H        -3.726058    6.488504    2.817715
H        -1.950421    4.842860    3.220099
H        -3.357088    2.892844   -0.330311
H        -3.465547    3.112048    1.408770
H        -5.388701    1.727914   -0.415812
H        -5.706412    2.413106    1.166541
H        -5.635681   -0.309806    0.891298
H        -4.868972    0.415733    2.301186
H        -4.295810   -4.095947   -2.122926
H        -6.475569   -3.807573   -0.006985
H        -6.276696   -2.693624   -1.331835
H        -6.659001   -4.577003   -2.985735
H        -8.028247   -4.316740   -1.918220
H        -6.957998   -5.676872   -1.648271
H        -3.229207   -5.674638   -0.534263
H        -4.853112   -6.216747   -0.895850
H        -4.513124   -5.418310    0.633718
H        -2.453888   -2.817674   -2.785924
H        -1.638277   -4.370895   -2.858432
H        -0.410195   -1.576245   -2.959975
H        -0.053782   -2.935843   -4.026092
H         1.136745   -4.118615   -2.220326
H         1.648547   -2.461238   -1.989315
H         1.282531   -4.283872    2.042407
H         0.260428   -4.007836    4.211844
H        -0.417753   -2.894103    3.063181
H         0.881437   -0.991276    4.120011
H         1.612049   -2.121439    5.253530
H        -0.114650   -1.820075    5.283975
H         3.638736   -4.331772    2.704629
H         3.375395   -3.133878    3.966243
H         2.655522   -4.726899    4.104590
