102
0 1
O         0.794418   -0.963750   -0.520903
O        -1.773989   -1.460922    1.138380
O        -3.537073    3.492642    0.652754
O         0.516351    3.451231    1.585098
O         4.487312    0.115614    1.993289
O         4.282112    2.064779   -2.420215
O         2.902169   -2.250115   -2.356178
O        -4.002101   -1.578837   -2.249593
O         6.307609   -3.256072   -0.869871
N         2.912819   -2.728185   -0.142376
N        -0.630272   -2.623854   -1.107694
N        -2.624410    0.241136   -0.123729
N        -1.544687    2.950654   -0.270339
N         1.462550    1.415747    1.128501
N         4.204463    1.926835    0.643657
N         4.522275   -0.129878   -1.926523
N        -7.084987    1.065199   -0.532921
C         1.548434   -3.256293   -0.200118
C         1.263551   -3.689977    1.262327
C         2.661355   -4.031085    1.807513
C         3.557782   -2.956867    1.171800
C         0.557898   -2.162695   -0.641318
C        -1.752443   -1.717554   -1.294125
C        -2.985173   -2.480713   -1.837844
C        -2.059517   -0.983607    0.045947
C        -2.813023    1.191891    0.973464
C        -4.141429    0.969201    1.741770
C        -5.329541    0.741851    0.853298
C        -5.866537   -0.540918    0.477407
C        -5.522646   -1.871287    0.784369
C        -6.269137   -2.908533    0.229275
C        -7.356981   -2.647333   -0.629967
C        -7.722298   -1.342631   -0.952168
C        -6.973808   -0.302995   -0.395537
C        -6.097276    1.688353    0.214504
C        -2.673959    2.646929    0.446889
C        -0.291719    2.204912   -0.359788
C         0.425428    2.461734   -1.717686
C         0.746534    3.912103   -2.159883
C         1.837367    4.599858   -1.313645
C         1.164632    3.894204   -3.647376
C         0.591085    2.442267    0.892171
C         2.416829    1.426610    2.236244
C         2.024733    0.497759    3.418729
C         2.874692    0.834503    4.661364
C         0.519274    0.585982    3.738268
C         3.809527    1.078683    1.636359
C         5.286147    1.613631   -0.288469
C         4.670819    1.195428   -1.643470
C         4.745041   -1.326537   -1.110035
C         5.980004   -2.099426   -1.645605
C         3.448136   -2.167962   -1.255579
H        -4.671536   -1.523014   -1.553614
H         6.774909   -2.968293   -0.074454
H        -0.810951   -3.611218   -1.074824
H        -2.975600    0.486072   -1.032657
H        -1.475781    3.940631   -0.438505
H         1.378281    0.564839    0.588475
H         3.555483    2.630756    0.337415
H         4.000852   -0.313099   -2.771534
H        -7.772912    1.538935   -1.084979
H         1.493813   -4.104297   -0.888399
H         0.821672   -2.860455    1.814246
H         0.560882   -4.519573    1.313791
H         2.967514   -5.024598    1.475239
H         2.708349   -4.017519    2.895352
H         3.578959   -2.044628    1.764124
H         4.577976   -3.298404    1.030025
H        -1.471685   -0.978968   -2.045469
H        -2.670104   -3.058798   -2.710081
H        -3.344151   -3.188611   -1.084636
H        -1.994183    1.021632    1.673835
H        -4.299912    1.821729    2.399036
H        -3.997602    0.100117    2.381818
H        -4.684475   -2.084590    1.433480
H        -6.013140   -3.933701    0.462122
H        -7.915736   -3.473146   -1.048872
H        -8.554029   -1.143775   -1.615298
H        -6.002081    2.758763    0.230994
H        -0.531110    1.151777   -0.378984
H        -0.219212    2.011356   -2.476173
H         1.344072    1.873999   -1.727628
H        -0.168649    4.511897   -2.089513
H         1.563064    4.684004   -0.266278
H         2.025423    5.609792   -1.679388
H         2.779030    4.056205   -1.395692
H         0.384234    3.474402   -4.283351
H         1.374022    4.901303   -4.008414
H         2.067447    3.299749   -3.788266
H         2.434032    2.456176    2.598253
H         2.246886   -0.531807    3.127049
H         2.648270    0.151056    5.479496
H         3.939943    0.759746    4.458756
H         2.665670    1.844943    5.017654
H         0.293207    0.015924    4.639430
H        -0.091920    0.171857    2.939737
H         0.201777    1.614069    3.910544
H         5.926765    0.871474    0.174262
H         5.877903    2.507540   -0.474122
H         4.909938   -1.037350   -0.077815
H         5.762992   -2.451018   -2.653719
H         6.819994   -1.400923   -1.719076
