80
0 1
N        -3.029158    1.992041    0.318605
C        -3.336192    0.562181    0.126186
C        -4.884621    0.469944   -0.093318
C        -5.384876   -0.903497   -0.579200
C        -5.639739    0.901267    1.178818
C        -2.553424    0.085224   -1.132474
O        -2.466439    0.842501   -2.095751
N        -1.989387   -1.159932   -1.138533
C        -2.248148   -2.289011   -0.223580
C        -2.317856   -3.486694   -1.205986
C        -1.202898   -3.150830   -2.214054
C        -1.331047   -1.625348   -2.392228
C        -1.160875   -2.605820    0.835002
O        -1.366905   -3.495871    1.652017
N         0.011353   -1.921269    0.728927
C         1.222718   -2.378201    1.417150
C         1.562798   -1.561751    2.676687
C        -1.997231    2.669858    0.900419
O        -1.718412    3.806103    0.520864
C         2.297731   -2.639351    0.320215
C        -1.190214    2.147117    2.133455
N         3.262022   -1.711673   -0.007940
O         2.278456   -3.721692   -0.253219
N         0.243776    2.265059    1.764448
C        -1.503418    0.812167    2.813693
C         3.289940   -0.260680    0.143315
C         0.668871    1.775218    0.566240
C         4.709746    0.243095    0.580347
C         2.882356    0.383339   -1.211252
C         1.956306    2.410009   -0.013257
O         0.045909    0.919417   -0.052597
C         5.824206   -0.180310   -0.397174
C         5.034609   -0.200670    2.018288
O         3.049217   -0.224713   -2.264941
N         2.413702    1.665416   -1.186771
C         1.635178    3.812171   -0.601712
C         1.957383    2.290632   -2.454385
C         1.086245    3.471351   -1.998810
H        -3.341139    2.528432   -0.478622
H        -3.061048    0.004890    1.010647
H        -5.111427    1.184661   -0.891631
H        -6.447858   -0.846309   -0.811112
H        -4.880254   -1.237610   -1.483235
H        -5.273544   -1.676504    0.180998
H        -5.468806    0.197074    1.995499
H        -6.714293    0.932288    1.000103
H        -5.332143    1.886895    1.520085
H        -3.180492   -2.167029    0.313724
H        -3.294778   -3.491332   -1.693368
H        -2.189217   -4.439472   -0.700032
H        -0.229185   -3.419071   -1.805903
H        -1.313437   -3.679357   -3.159353
H        -0.374237   -1.123014   -2.527950
H        -1.958495   -1.354969   -3.240777
H         0.056117   -1.110107    0.133853
H         0.989259   -3.383993    1.756239
H         1.578728   -0.486916    2.523995
H         0.803994   -1.761721    3.431233
H         2.525655   -1.862591    3.086008
H        -1.355151    2.931061    2.873059
H         3.748206   -2.017946   -0.837257
H         0.711163    3.085030    2.108736
H        -1.261279   -0.042226    2.195524
H        -2.552645    0.762298    3.099600
H        -0.915108    0.728056    3.726097
H         2.586928    0.017877    0.914837
H         4.665371    1.336845    0.567671
H         2.725817    2.473072    0.757525
H         6.768534    0.282043   -0.112097
H         5.610391    0.109338   -1.423401
H         5.982029   -1.258447   -0.382511
H         6.015772    0.162216    2.323858
H         4.308407    0.180227    2.736402
H         5.044914   -1.286504    2.100911
H         0.926621    4.374808    0.000879
H         2.560328    4.386685   -0.669182
H         1.414017    1.564974   -3.053852
H         2.826170    2.609381   -3.033532
H         0.042688    3.169916   -1.925778
H         1.137364    4.315153   -2.684337
