80
0 1
N         2.701209    1.144466   -0.531219
C         3.883345    0.321662   -0.850944
C         5.261289    0.888753   -0.373064
C         5.334368    1.451496    1.055362
C         6.361482   -0.163611   -0.616209
C         3.503532   -1.139673   -0.490380
O         3.565893   -2.003137   -1.360934
N         2.927610   -1.419217    0.726887
C         2.009370   -2.560346    0.774975
C         1.574025   -2.636508    2.259873
C         1.676349   -1.174782    2.731953
C         2.923437   -0.661224    1.996452
C         0.781600   -2.247187   -0.124499
O         0.425483   -1.091752   -0.369044
N         0.120179   -3.346749   -0.553764
C        -1.252912   -3.322113   -1.098780
C        -1.332193   -2.545953   -2.419751
C         2.488271    2.386015   -1.047159
O         3.319621    3.065175   -1.632490
C        -2.211534   -3.095597    0.122577
C         1.017214    2.888953   -0.875265
N        -3.040696   -2.025349    0.261814
O        -2.196991   -3.986922    0.970403
N         0.479372    2.392429    0.405085
C         0.251821    2.469398   -2.142906
C        -3.085145   -0.695073   -0.348110
C        -0.723895    1.932307    0.880450
C        -4.123482   -0.639493   -1.532644
C        -3.529816    0.264007    0.793126
C        -2.014280    2.162702    0.047668
O        -0.789509    1.434331    1.998501
C        -3.984701    0.627798   -2.395681
C        -5.581206   -0.848808   -1.082001
O        -4.305171   -0.144247    1.656721
N        -3.162513    1.573198    0.736132
C        -2.392817    3.663026    0.037975
C        -3.733429    2.515959    1.727373
C        -3.024501    3.857005    1.433427
H         1.875740    0.611813   -0.292486
H         3.972803    0.269705   -1.937076
H         5.444742    1.729123   -1.043374
H         5.330377    0.675434    1.817701
H         6.264476    2.006382    1.177826
H         4.522401    2.144277    1.267641
H         6.334190   -0.557207   -1.631434
H         7.348058    0.270125   -0.456043
H         6.264687   -1.012827    0.061656
H         2.496609   -3.473214    0.437111
H         2.271030   -3.273030    2.807631
H         0.578786   -3.061161    2.381847
H         1.772845   -1.084735    3.812870
H         0.798563   -0.605637    2.433890
H         3.830828   -0.887427    2.562269
H         2.899573    0.409251    1.830314
H         0.403971   -4.227547   -0.163780
H        -1.463285   -4.361751   -1.347426
H        -2.302837   -2.693866   -2.886512
H        -0.582005   -2.947114   -3.099600
H        -1.141318   -1.485856   -2.322843
H         1.085145    3.979321   -0.852102
H        -3.590424   -2.075081    1.108908
H         1.175599    2.318934    1.128671
H         0.845236    2.757295   -3.007914
H        -0.708271    2.967632   -2.240908
H         0.103185    1.391825   -2.178897
H        -2.095042   -0.442019   -0.709093
H        -3.865106   -1.489570   -2.164409
H        -1.912394    1.760075   -0.949570
H        -4.646062    0.572161   -3.259957
H        -4.255180    1.528045   -1.845456
H        -2.971901    0.754495   -2.780108
H        -5.691601   -1.741225   -0.470417
H        -6.224518   -0.966712   -1.954044
H        -5.962203   -0.008400   -0.504766
H        -1.546247    4.321945   -0.142274
H        -3.124348    3.840552   -0.751591
H        -3.555990    2.160231    2.739520
H        -4.812420    2.567782    1.582997
H        -3.708409    4.703052    1.465424
H        -2.247191    4.043628    2.173086
