80
0 1
N        -0.964749    2.482770   -0.433409
C        -2.250480    1.812012   -0.260324
C        -3.411534    2.766484   -0.716454
C        -3.435426    4.049540    0.135420
C        -4.796748    2.091938   -0.713111
C        -2.219256    0.550837   -1.148747
O        -1.732408    0.628326   -2.278452
N        -2.772375   -0.615250   -0.699428
C        -3.479583   -0.913138    0.562867
C        -4.713060   -1.692186    0.072661
C        -4.110379   -2.583497   -1.032364
C        -3.029752   -1.695279   -1.690341
C        -2.649393   -1.818267    1.533421
O        -3.205066   -2.621692    2.273463
N        -1.299416   -1.675655    1.461876
C        -0.385107   -2.519089    2.244476
C        -0.075301   -1.919258    3.622329
C        -0.227255    2.966143    0.598621
O        -0.558949    2.894196    1.779090
C         0.912446   -2.733881    1.422089
C         1.098876    3.655287    0.184169
N         0.734526   -2.806616    0.058293
O         2.019994   -2.780749    1.939218
N         2.193347    2.804611    0.662622
C         1.180825    5.064816    0.782943
C         1.775189   -2.203089   -0.787657
C         2.868854    1.976574   -0.189052
C         1.252020   -2.017467   -2.239630
C         2.099379   -0.822006   -0.157361
C         3.703874    0.888620    0.519619
O         2.882696    2.100647   -1.406796
C         0.856886   -3.370719   -2.864304
C         2.279095   -1.286373   -3.128200
O         1.170257   -0.088271    0.205574
N         3.388218   -0.440725   -0.037971
C         5.214518    1.015589    0.261346
C         4.599301   -1.264670   -0.247653
C         5.713660   -0.432757    0.414585
H        -0.564564    2.412399   -1.353709
H        -2.350488    1.588735    0.798533
H        -3.180786    3.040691   -1.750489
H        -3.630602    3.830192    1.185294
H        -2.495847    4.592996    0.084738
H        -4.219378    4.721910   -0.213186
H        -5.096002    1.778583    0.287861
H        -4.841546    1.224188   -1.367568
H        -5.555412    2.791445   -1.062576
H        -3.746057   -0.003625    1.093060
H        -5.443927   -0.996704   -0.339216
H        -5.182509   -2.255728    0.872396
H        -3.665363   -3.472498   -0.586025
H        -4.849346   -2.924284   -1.755252
H        -3.363073   -1.238080   -2.620140
H        -2.117054   -2.242156   -1.923850
H        -0.883385   -0.907300    0.958058
H        -0.890874   -3.477531    2.377722
H         0.388931   -0.939985    3.521804
H        -0.997039   -1.813378    4.189121
H         0.606673   -2.558738    4.176439
H         1.200280    3.704924   -0.896904
H        -0.202463   -2.616062   -0.250512
H         2.075447    2.487633    1.610410
H         0.385468    5.697190    0.388473
H         1.070662    5.033821    1.864917
H         2.135967    5.525397    0.538604
H         2.642443   -2.858926   -0.800366
H         0.365541   -1.378464   -2.182957
H         3.495415    0.881702    1.594144
H         0.444873   -3.223802   -3.862296
H         1.722548   -4.028005   -2.961481
H         0.113015   -3.907740   -2.278192
H         2.526175   -0.295696   -2.754535
H         1.877746   -1.159972   -4.132807
H         3.204305   -1.857605   -3.223436
H         5.691728    1.716178    0.944277
H         5.371794    1.373700   -0.756446
H         4.482351   -2.240793    0.217578
H         4.790114   -1.404845   -1.312657
H         5.799697   -0.696021    1.469918
H         6.685598   -0.604324   -0.045496
