56
0 1
N         2.380596   -1.163893   -0.107682
C         0.992821   -1.492842   -0.475175
C         1.098155   -2.915338   -1.117839
C         2.591191   -3.068858   -1.455278
C         3.272881   -2.322776   -0.306412
C         0.091700   -1.589180    0.780814
O         0.586695   -1.792059    1.886176
N        -1.258853   -1.533213    0.596016
C        -2.031077   -1.295965   -0.633284
C        -2.983786   -2.507677   -0.621598
C        -3.400889   -2.579308    0.865878
C        -2.167568   -2.045153    1.648904
C         2.823967   -0.141276    0.688461
O         3.926557   -0.189741    1.223225
C        -2.877145    0.026468   -0.629755
C         1.961028    1.163352    0.816111
N        -2.412681    1.149985   -0.008040
O        -3.977153    0.020337   -1.176602
N         1.262904    1.511018   -0.432634
C         2.903072    2.372342    0.978680
C        -1.062551    1.447829    0.488923
C        -3.242582    2.378352   -0.114972
C        -0.073431    1.611133   -0.696127
C         2.244321    2.092034   -1.378176
C         3.401847    2.601606   -0.469151
C        -1.259353    2.812992    1.200137
C        -2.309655    3.517851    0.325122
O        -0.492954    1.897774   -1.815066
H         0.624007   -0.782154   -1.205756
H         0.442581   -3.017172   -1.980789
H         0.802675   -3.675802   -0.394603
H         2.822828   -2.587127   -2.406778
H         2.901743   -4.110300   -1.526939
H         4.279783   -1.983572   -0.532749
H         3.325447   -2.928585    0.602167
H        -1.393023   -1.273839   -1.511961
H        -2.424012   -3.396972   -0.914388
H        -3.823497   -2.384944   -1.296790
H        -3.670541   -3.587180    1.176141
H        -4.270345   -1.946775    1.036256
H        -2.435169   -1.253479    2.350379
H        -1.644202   -2.810069    2.215987
H         1.276378    1.045661    1.650070
H         3.706782    2.183189    1.682102
H         2.323019    3.225442    1.333011
H        -0.744231    0.701474    1.201033
H        -3.608142    2.496880   -1.131366
H        -4.114949    2.279514    0.533950
H         1.754476    2.876834   -1.947119
H         2.584229    1.340918   -2.092328
H         4.310430    2.028832   -0.643828
H         3.637268    3.646206   -0.664896
H        -0.330978    3.372457    1.301904
H        -1.645048    2.634987    2.205276
H        -2.840180    4.305062    0.858395
H        -1.833936    3.969252   -0.543456
