56
0 1
N        -1.897930    0.607644    0.482102
C        -2.248282   -0.603600   -0.313102
C        -3.702999   -0.305737   -0.696221
C        -4.270040    0.322924    0.609151
C        -3.021751    0.804059    1.416794
C        -1.319092   -1.003797   -1.471722
O        -1.615460   -0.761860   -2.640629
N        -0.148272   -1.635714   -1.130582
C         0.116361   -2.357133    0.149017
C         1.455661   -3.075753   -0.118055
C         1.366161   -3.413436   -1.616752
C         0.722392   -2.157768   -2.221435
C        -0.868110    1.507322    0.438932
O        -0.687206    2.320226    1.347065
C         0.004503   -1.569907    1.482675
C        -0.112179    1.636222   -0.887786
N         0.791596   -0.494850    1.772245
O        -0.843666   -1.963630    2.288726
N         1.335327    1.327759   -0.964223
C        -0.136227    3.098018   -1.376383
C         2.024835   -0.009839    1.113754
C         0.660835    0.077706    3.147590
C         2.128557    0.376175   -0.384409
C         1.866865    1.959223   -2.202859
C         0.832930    3.052589   -2.573181
C         2.421199    1.216888    1.973950
C         1.992368    0.799937    3.385299
O         3.152482   -0.006283   -0.958640
H        -2.263663   -1.427505    0.403088
H        -4.239477   -1.201213   -1.005741
H        -3.723843    0.392685   -1.530445
H        -4.946607    1.147777    0.392192
H        -4.835409   -0.408347    1.185077
H        -2.871942    0.205886    2.316138
H        -3.060811    1.847056    1.713489
H        -0.650018   -3.123938    0.276110
H         1.563108   -3.947179    0.525589
H         2.310184   -2.428947    0.053896
H         2.336303   -3.634182   -2.058158
H         0.725262   -4.283012   -1.774932
H         0.122976   -2.354204   -3.105073
H         1.471841   -1.412269   -2.482041
H        -0.609160    1.051567   -1.652170
H        -1.140991    3.419505   -1.647853
H         0.222236    3.747243   -0.580049
H         2.802913   -0.765274    1.221766
H         0.466166   -0.719693    3.858319
H        -0.181515    0.764684    3.171636
H         1.988337    1.224249   -2.998726
H         2.857123    2.356743   -1.989743
H         1.306835    4.014717   -2.761253
H         0.299240    2.776775   -3.482501
H         3.483121    1.433894    1.873713
H         1.859923    2.090490    1.651361
H         1.884441    1.646546    4.061346
H         2.725264    0.119892    3.824448
