151
0 1
O         3.914772   -0.359461   -2.766215
O         2.322410   -1.867483    2.034207
O        -1.224918   -4.576468   -1.175217
O        -2.283087   -0.797977    1.524491
O        -6.410669    0.544659    0.406202
O        -3.897103    5.240313    0.609218
O        -1.203217    1.760270   -0.673915
O         1.638526    2.564426   -0.765650
O         6.154805    1.837379   -2.163259
N         1.694526   -1.385481   -0.091772
N         0.824828   -4.197399   -0.288995
N        -2.429531   -2.788667    0.422703
N        -4.179182    0.361468   -0.023656
N        -3.885857    2.964914    0.908734
N        -0.987297    3.699164    0.526835
N         1.496780    1.801264    1.379452
N         4.363088    2.319197   -0.860466
N         4.286195   -0.590096   -0.530634
C         3.533618   -0.731904   -1.670266
C         2.120265   -1.400439   -1.504051
C         1.108919   -0.662905   -2.409046
C        -0.195461   -1.422393   -2.735044
C         0.052477   -2.653228   -3.628652
C        -1.190214   -0.462033   -3.421433
C         1.985908   -2.269384    0.915160
C         1.761030   -3.794720    0.753056
C         3.091890   -4.609091    0.698136
C         2.829944   -6.099130    0.999515
C         3.900201   -4.436811   -0.601914
C        -0.538375   -4.099061   -0.276241
C        -1.205737   -3.397506    0.929649
C        -1.507746   -4.459162    2.024824
C        -2.126839   -3.913838    3.332569
C        -1.183331   -2.943842    4.070969
C        -2.533100   -5.091475    4.242609
C        -2.853994   -1.534713    0.719975
C        -4.171478   -1.095373    0.018962
C        -4.452974   -1.751025   -1.363411
C        -5.258267   -3.082364   -1.299754
C        -4.967729   -3.956856   -2.535316
C        -6.768170   -2.801460   -1.150799
C        -5.318565    1.071646    0.223489
C        -5.173665    2.610352    0.284661
C        -5.422749    3.281046   -1.098424
C        -4.328583    3.085094   -2.189911
C        -4.030410    4.417777   -2.908990
C        -4.715439    1.996561   -3.210865
C        -3.353754    4.217161    1.004553
C        -1.899986    4.231737    1.581531
C        -1.478349    5.632418    2.015662
C        -0.788897    2.329477    0.328142
C         0.022450    1.519335    1.365768
C        -0.324738    1.587345    2.863006
C         0.888011    0.893591    3.501333
C         2.072096    1.476509    2.713725
C         2.185261    2.276160    0.293515
C         3.724501    2.431972    0.447285
C         4.160951    3.755732    1.151296
C         3.694258    5.095448    0.517645
C         2.299560    5.526066    1.013869
C         4.734282    6.199058    0.803989
C         5.407719    1.509575   -1.257409
C         5.551047    0.167423   -0.480755
C         6.826828   -0.638861   -0.850661
C         6.818912   -1.290937   -2.244373
C         7.120979   -1.686763    0.243925
H         1.677345   -0.445644    0.273904
H         1.175849   -4.702216   -1.084364
H        -2.857871   -3.309602   -0.321075
H        -3.322466    0.826002   -0.272825
H        -3.416932    2.218531    1.389848
H        -1.228106    4.109998   -0.366313
H         4.223822    3.096759   -1.482573
H         3.934438   -0.923759    0.345252
H         2.223667   -2.434290   -1.821294
H         0.874846    0.294973   -1.944583
H         1.625730   -0.424887   -3.337246
H        -0.649221   -1.754004   -1.797990
H        -0.866866   -3.212013   -3.793218
H         0.767195   -3.355732   -3.202443
H         0.441637   -2.351913   -4.602788
H        -0.771724   -0.058827   -4.345557
H        -2.116126   -0.973161   -3.685715
H        -1.438978    0.378183   -2.778927
H         1.327178   -4.045105    1.720029
H         3.690162   -4.203085    1.517208
H         3.769889   -6.644449    1.072404
H         2.300025   -6.232548    1.942411
H         2.238004   -6.580336    0.221198
H         4.827013   -5.005396   -0.541605
H         4.176508   -3.402819   -0.785418
H         3.374332   -4.804429   -1.484326
H        -0.587210   -2.601464    1.326941
H        -0.586966   -4.998018    2.267406
H        -2.174048   -5.201483    1.579371
H        -3.037394   -3.366631    3.071255
H        -1.002483   -2.040056    3.495795
H        -1.614793   -2.634124    5.022887
H        -0.219524   -3.408723    4.288690
H        -1.665002   -5.680156    4.546096
H        -3.228371   -5.767854    3.744469
H        -3.017292   -4.736816    5.152315
H        -4.980553   -1.373404    0.697048
H        -3.514171   -1.884682   -1.902259
H        -5.026574   -1.040962   -1.956308
H        -4.946520   -3.648608   -0.414061
H        -3.917759   -4.245463   -2.588202
H        -5.211389   -3.426671   -3.457766
H        -5.559658   -4.872258   -2.521656
H        -7.325149   -3.721218   -0.971554
H        -7.166507   -2.349140   -2.060645
H        -6.983080   -2.112443   -0.336272
H        -5.988096    2.929891    0.937568
H        -6.384156    2.897829   -1.446666
H        -5.570953    4.339163   -0.905968
H        -3.399320    2.772836   -1.710413
H        -3.703387    5.182024   -2.205538
H        -3.249652    4.295693   -3.660582
H        -4.915889    4.801613   -3.419788
H        -3.907186    1.811438   -3.918696
H        -5.594998    2.291072   -3.786626
H        -4.947017    1.049203   -2.730106
H        -1.863849    3.562120    2.434045
H        -0.474931    5.610716    2.433486
H        -1.490935    6.323853    1.176580
H        -2.161388    6.024230    2.767038
H        -0.135791    0.491192    1.045666
H        -1.269927    1.096917    3.079316
H        -0.363479    2.616701    3.214179
H         0.975145    1.081374    4.570199
H         0.839295   -0.183287    3.355878
H         2.455177    2.379213    3.190527
H         2.882645    0.755766    2.634587
H         4.095384    1.623073    1.065893
H         3.850895    3.734565    2.198214
H         5.251918    3.719142    1.168042
H         3.636524    4.979222   -0.568846
H         2.303467    5.684616    2.094668
H         1.997304    6.466428    0.552790
H         1.526579    4.799949    0.784778
H         4.424131    7.154346    0.380799
H         4.869409    6.348787    1.877184
H         5.708980    5.953471    0.381948
H         5.672909    0.429791    0.572923
H         7.635465    0.097153   -0.835431
H         7.789702   -1.749004   -2.437745
H         6.621760   -0.565209   -3.023808
H         6.071140   -2.078989   -2.319429
H         8.051837   -2.213073    0.035428
H         7.218967   -1.236368    1.233506
H         6.335062   -2.440585    0.303561
