151
0 1
O        -4.793343   -0.558050    2.396294
O        -2.096694   -3.983517    2.402230
O         1.841124   -4.844434    0.575508
O         1.206283   -1.372053    1.158423
O         5.434084   -1.563181   -0.891540
O         3.935102    2.633528   -2.496173
O         2.907650    2.218494    1.301579
O        -0.523011    3.614175    1.798416
O        -3.939820    3.156063   -1.956259
N        -3.172143   -2.312877    1.362386
N        -0.371174   -4.470229    0.416197
N         2.395825   -2.383729   -0.492975
N         4.269696   -0.217575    0.535765
N         5.238982    2.096411   -0.701602
N         2.387523    3.784600   -0.262916
N        -0.312935    2.761488   -0.288544
N        -3.310315    2.921246    0.227746
N        -5.025630    0.782783    0.612940
C        -4.567306   -0.370420    1.205690
C        -3.814719   -1.452991    0.367064
C        -4.824047   -2.174684   -0.578218
C        -6.138496   -2.741465    0.019924
C        -6.974468   -3.359464   -1.122968
C        -5.963425   -3.767993    1.158483
C        -2.332026   -3.396212    1.349862
C        -1.667797   -3.910821    0.040840
C        -2.544843   -5.028572   -0.642036
C        -2.027937   -5.347905   -2.055127
C        -2.665601   -6.312510    0.203075
C         0.922111   -4.217671    0.059416
C         1.248186   -3.130679   -1.005850
C         1.588333   -3.791325   -2.359282
C         1.693254   -2.871648   -3.607726
C         0.354192   -2.179721   -3.936313
C         2.846733   -1.848713   -3.560193
C         2.291401   -1.687795    0.674379
C         3.659884   -1.313587    1.304348
C         3.542560   -0.929645    2.786823
C         2.986932   -2.032745    3.723956
C         3.036045   -1.533300    5.182119
C         3.721469   -3.380562    3.574783
C         5.118367   -0.438918   -0.495955
C         5.700458    0.809107   -1.223434
C         7.242688    0.743173   -1.355509
C         8.091771    1.094943   -0.109367
C         9.587800    1.067633   -0.488715
C         7.825843    0.178669    1.102983
C         4.355564    2.888804   -1.370788
C         3.785912    4.131163   -0.613077
C         4.584880    4.704050    0.563711
C         2.105741    2.683539    0.490379
C         0.817640    1.920574    0.153892
C         1.057354    0.982256   -1.065029
C         0.475603    1.745833   -2.263682
C        -0.762640    2.411159   -1.656219
C        -0.981898    3.479293    0.669378
C        -2.370120    4.052351    0.276525
C        -2.814737    5.138814    1.272592
C        -4.206480    5.760742    1.018179
C        -4.544910    6.753785    2.149426
C        -4.321244    6.441046   -0.361261
C        -4.012314    2.569641   -0.880358
C        -4.961385    1.338493   -0.740207
C        -6.372311    1.752034   -1.281210
C        -7.039271    2.845605   -0.422023
C        -7.310889    0.551747   -1.474095
H        -3.511541   -2.124052    2.295067
H        -0.423819   -5.064686    1.228311
H         3.310849   -2.716923   -0.746697
H         3.949781    0.712018    0.764331
H         5.517370    2.360522    0.224181
H         1.693608    4.047474   -0.938595
H        -3.408513    2.366188    1.059593
H        -5.578182    1.310185    1.269953
H        -3.057894   -0.968434   -0.258054
H        -4.285348   -2.966997   -1.091157
H        -5.089978   -1.473774   -1.368937
H        -6.708820   -1.902314    0.429040
H        -6.476429   -4.232197   -1.549551
H        -7.947962   -3.688983   -0.761252
H        -7.150548   -2.656241   -1.936644
H        -5.527944   -3.331700    2.050567
H        -5.339693   -4.609628    0.860494
H        -6.934457   -4.174790    1.442252
H        -1.528022   -3.094369   -0.664447
H        -3.551099   -4.626664   -0.745677
H        -1.029432   -5.780114   -2.022332
H        -1.989085   -4.460080   -2.687169
H        -2.676807   -6.070648   -2.549547
H        -3.375283   -6.995545   -0.262910
H        -3.010093   -6.112848    1.214319
H        -1.715198   -6.839726    0.273469
H         0.416934   -2.440220   -1.118395
H         2.515016   -4.356536   -2.235447
H         0.822886   -4.540121   -2.564393
H         1.907929   -3.555754   -4.436806
H        -0.460496   -2.897848   -4.037486
H         0.066118   -1.462693   -3.167058
H         0.418776   -1.628110   -4.874305
H         2.972121   -1.371023   -4.532422
H         3.797714   -2.310151   -3.298101
H         2.664572   -1.060563   -2.834199
H         4.326820   -2.165489    1.194153
H         4.544945   -0.646453    3.121777
H         2.920875   -0.039051    2.874368
H         1.939118   -2.191933    3.463974
H         2.573217   -2.250601    5.860217
H         2.510255   -0.585185    5.301012
H         4.063654   -1.381998    5.520400
H         3.379152   -4.090941    4.327609
H         3.540966   -3.846394    2.607710
H         4.800838   -3.269199    3.703385
H         5.290786    0.748013   -2.230173
H         7.489866   -0.263135   -1.695113
H         7.520692    1.422568   -2.164025
H         7.857612    2.125524    0.185135
H         9.807073    1.735259   -1.322573
H        10.214641    1.372826    0.349252
H         9.901834    0.064514   -0.782200
H         6.816281    0.281660    1.494632
H         7.964059   -0.871060    0.844417
H         8.508660    0.410658    1.920588
H         3.709018    4.900740   -1.379556
H         4.101661    5.609026    0.927240
H         5.592242    4.970140    0.244012
H         4.643549    4.017239    1.401468
H         0.556249    1.354444    1.043836
H         2.099354    0.712624   -1.196286
H         0.509974    0.060098   -0.888556
H         1.188001    2.479375   -2.639083
H         0.223320    1.093978   -3.098183
H        -1.109790    3.283223   -2.203320
H        -1.590240    1.700643   -1.622715
H        -2.339354    4.457827   -0.730262
H        -2.773702    4.722851    2.280063
H        -2.055898    5.925593    1.257801
H        -4.947453    4.955550    1.060133
H        -5.547327    7.164708    2.028337
H        -3.848745    7.594371    2.162284
H        -4.500187    6.280408    3.130660
H        -5.293406    6.920527   -0.478655
H        -4.210397    5.738009   -1.183825
H        -3.563789    7.218604   -0.480846
H        -4.551965    0.582853   -1.406586
H        -6.167642    2.186533   -2.259987
H        -6.409651    3.725486   -0.311280
H        -7.310808    2.493175    0.574849
H        -7.965579    3.174524   -0.890514
H        -6.892561   -0.184782   -2.157912
H        -8.259783    0.878077   -1.898464
H        -7.534425    0.048249   -0.535091
