160
0 1
O         2.295379   -0.632547   -1.192809
O         4.330181   -0.315217    2.783287
O         1.212452   -2.238599    1.645434
O        -1.317059   -1.874867   -1.794932
O        -3.429759   -2.544517    2.173994
O        -4.602761    0.146952   -2.549280
O        -0.397082    1.557833   -1.893687
O        -1.426930    4.407432    2.509503
O         3.691992    3.635288    1.289406
N         2.415766    1.630264   -1.157790
N         4.236885   -1.013443    0.602792
N         3.119987   -3.415370    1.360414
N         0.398751   -3.057552   -0.935229
N        -3.143104   -2.653706   -0.092950
N        -5.136206   -0.818650   -0.577856
N        -2.556780    1.555644   -1.325279
N        -1.310316    2.398018    1.456480
N         1.458147    3.619856    1.043158
C         2.890408    0.392570   -0.847891
C         4.227754    0.286702   -0.053333
C         5.453703    0.448698   -1.009493
C         6.665189    1.197148   -0.401496
C         7.282163    0.466013    0.805837
C         7.725302    1.455500   -1.491084
C         4.141663   -1.192352    1.949854
C         3.837818   -2.654838    2.392143
C         5.104976   -3.431849    2.857307
C         6.203391   -3.524570    1.778039
C         5.672876   -2.849827    4.166875
C         1.825243   -3.120305    1.057697
C         1.085666   -3.969693   -0.026245
C         1.831746   -5.122514   -0.767436
C         2.644376   -4.891822   -2.079378
C         1.755921   -4.675595   -3.325266
C         3.747419   -3.818701   -2.004312
C        -0.923293   -2.738782   -1.011872
C        -1.925133   -3.455086   -0.069800
C        -2.240596   -4.949411   -0.381785
C        -3.113205   -5.256937   -1.622890
C        -2.419754   -4.941282   -2.962759
C        -3.559951   -6.733943   -1.580458
C        -3.742914   -2.202690    1.038125
C        -4.960929   -1.246309    0.813506
C        -6.211656   -1.993652    1.347561
C        -7.523813   -1.204248    1.593932
C        -7.315810   -0.003189    2.536905
C        -8.280131   -0.810506    0.309593
C        -4.531355    0.165602   -1.324753
C        -3.843478    1.371117   -0.634317
C        -4.736124    2.653927   -0.867654
C        -6.252564    2.410070   -0.758658
C        -4.285530    3.833457    0.026855
C        -4.788955    3.814668    1.480938
C        -1.234109    1.526332   -0.983669
C        -0.743054    1.439933    0.477685
C        -1.024737    0.049181    1.095044
C        -1.204617    0.327286    2.593611
C        -1.918779    1.682272    2.608452
C        -0.937317    3.709664    1.622288
C         0.175958    4.336696    0.722584
C        -0.245838    4.567997   -0.748833
C        -0.443322    6.066786   -1.127031
C         0.839818    6.911297   -1.010907
C        -1.608493    6.715670   -0.350470
C         2.746070    3.489652    0.518372
C         3.088255    2.901772   -0.891574
C         3.075782    3.885869   -2.098132
C         4.008369    5.078253   -1.798905
C         3.501161    3.181160   -3.401417
H         1.483381    1.629436   -1.571852
H         3.901200   -1.760297    0.024154
H         3.593765   -4.160725    0.889602
H         0.977119   -2.369426   -1.395964
H        -3.284487   -2.159096   -0.957783
H        -5.612183   -1.479593   -1.172962
H        -2.664361    1.490791   -2.327257
H         1.613592    3.748316    2.033854
H         4.259923    1.035017    0.734103
H         5.758832   -0.546538   -1.342014
H         5.143925    0.968163   -1.916780
H         6.307170    2.170062   -0.045812
H         7.639880   -0.526090    0.523522
H         8.137630    1.019112    1.194663
H         6.575472    0.351024    1.623301
H         8.120267    0.520061   -1.892722
H         8.569839    2.019831   -1.095529
H         7.317688    2.022713   -2.329212
H         3.167678   -2.547125    3.243435
H         4.756831   -4.448370    3.075529
H         6.610654   -2.545194    1.537793
H         5.855762   -3.966104    0.843454
H         7.026170   -4.146271    2.129211
H         6.032849   -1.833095    4.033985
H         4.919369   -2.825800    4.952991
H         6.502661   -3.460614    4.522023
H         0.328969   -4.469206    0.573827
H         1.069135   -5.865112   -1.011147
H         2.468304   -5.629874   -0.036714
H         3.151981   -5.850702   -2.235860
H         0.980026   -5.436999   -3.398091
H         1.260905   -3.708649   -3.334559
H         2.358118   -4.740140   -4.231894
H         4.462439   -4.013403   -1.205160
H         4.320840   -3.803195   -2.931157
H         3.345920   -2.817160   -1.868940
H        -1.533014   -3.402536    0.944817
H        -2.753455   -5.331125    0.503602
H        -1.309986   -5.516201   -0.454618
H        -4.015187   -4.640777   -1.552802
H        -3.056078   -5.222788   -3.802089
H        -1.488044   -5.499954   -3.064941
H        -2.185968   -3.887226   -3.076498
H        -4.214917   -6.971890   -2.418693
H        -4.101848   -6.969254   -0.663863
H        -2.705107   -7.411168   -1.636971
H        -4.773571   -0.373493    1.434442
H        -5.901883   -2.436040    2.293042
H        -6.414193   -2.836649    0.678441
H        -8.167319   -1.914081    2.126573
H        -6.815889   -0.298961    3.459728
H        -6.716230    0.783555    2.080663
H        -8.269207    0.447563    2.811465
H        -7.745480   -0.070303   -0.277764
H        -8.453279   -1.676465   -0.331093
H        -9.256799   -0.389809    0.550309
H        -3.676368    1.211166    0.422324
H        -4.540512    2.933676   -1.905719
H        -6.786861    3.348158   -0.908839
H        -6.549456    2.028353    0.214346
H        -6.608518    1.716840   -1.515762
H        -4.623385    4.759780   -0.444761
H        -3.200935    3.881280    0.022397
H        -4.659500    2.843267    1.955555
H        -4.232883    4.528622    2.083551
H        -5.846487    4.065323    1.550805
H         0.326436    1.598773    0.423589
H        -0.219703   -0.643029    0.888167
H        -1.929915   -0.373773    0.674779
H        -0.233061    0.405540    3.083076
H        -1.768788   -0.458334    3.091412
H        -1.776346    2.266917    3.511461
H        -2.995436    1.564513    2.474903
H         0.289517    5.314936    1.184498
H         0.451922    4.101476   -1.430251
H        -1.189119    4.067164   -0.943688
H        -0.727338    6.059334   -2.185181
H         0.645900    7.945870   -1.293782
H         1.236067    6.933852    0.004879
H         1.627401    6.544028   -1.663187
H        -1.748295    7.751718   -0.659072
H        -2.546167    6.193770   -0.530233
H        -1.444861    6.716718    0.726503
H         4.138435    2.680679   -0.753624
H         2.069611    4.269096   -2.256752
H         5.042480    4.748327   -1.692492
H         3.744837    5.600761   -0.882478
H         3.979347    5.802697   -2.611956
H         2.844013    2.354592   -3.660146
H         3.484552    3.887167   -4.231413
H         4.516987    2.789968   -3.332548
