48
0 1
C        -0.666023    1.530846   -0.096246
C         0.011074    2.923136   -0.201514
C        -0.974418    3.849320    0.538100
C        -2.358853    3.281115    0.177484
C        -3.133336    1.046428   -0.482036
C        -2.787087   -0.430742   -0.802695
C        -3.975256   -1.144798   -1.464496
C        -1.471896   -2.119463    0.618077
C        -0.516327   -2.481892   -0.546321
C         1.736558   -2.072400    0.522910
C         1.598985   -0.541685    0.273318
C         2.970866    0.160058    0.297945
C         3.889561   -0.282013   -0.866125
C         5.178802    0.525686   -0.901742
C        -0.333895    0.872884    1.268081
N        -2.091121    1.869728   -0.178936
N        -2.367098   -1.100047    0.426766
N         0.790269   -2.888482   -0.043391
N         0.704548   -0.023375    1.318195
O        -4.295748    1.442657   -0.497695
O        -3.518346   -2.452163   -1.833012
O        -1.384920   -2.707258    1.684511
O         2.652176   -2.516270    1.200759
O         6.278130    0.124107   -0.603131
O         4.940211    1.816834   -1.304896
O        -0.948624    1.187238    2.277062
H        -0.379530    0.903819   -0.935808
H         0.093627    3.199761   -1.253657
H         1.014399    2.937414    0.220076
H        -0.866540    4.891506    0.242556
H        -0.811588    3.788277    1.611490
H        -2.811467    3.788657   -0.676183
H        -3.068270    3.335226    1.000281
H        -1.964449   -0.459167   -1.514367
H        -4.303318   -0.566938   -2.334427
H        -4.813547   -1.177581   -0.764391
H        -0.953152   -3.312864   -1.095433
H        -0.397046   -1.688874   -1.276757
H         1.141969   -0.362070   -0.695737
H         2.799782    1.234209    0.242987
H         3.461007   -0.046594    1.248184
H         4.158001   -1.328686   -0.759415
H         3.368210   -0.153407   -1.817526
H        -2.939620   -0.928974    1.239100
H         0.836582   -3.824292    0.325507
H         0.873430   -0.372385    2.249098
H        -4.283540   -3.004545   -2.033340
H         5.793292    2.282712   -1.277893
