126
0 1
N        -0.297475   -2.129832   -2.106118
N         2.463067   -2.094722   -1.224002
O         4.933434    0.919430    2.344822
O        -0.283348   -1.307219   -0.005241
O        -2.626081    3.192628    1.779091
O        -3.379785   -0.644043   -2.633661
O         2.947009   -1.365143   -3.327485
N        -3.367407   -0.879534   -0.379837
N        -2.690128   -3.767344   -1.003502
N         3.517066    2.383430    1.375664
N         4.437334   -1.103640    0.824990
O         6.222975    2.456173   -1.017744
N         0.057904    3.345886    1.312063
O        -4.885989   -4.010464   -1.404201
C         2.134391   -1.533577   -2.426782
C         4.455966   -2.368296    0.340572
C         1.411012    3.525491    1.495212
C        -3.154014   -0.168987   -1.526128
O         1.822774    4.305777    2.345725
N        -2.955949    1.784003    0.024959
C         0.639906   -1.090081   -2.590192
C        -0.677062   -2.168290   -0.808625
C         3.926778    0.158118    0.286434
O        -5.534092    3.260266    2.764546
C        -0.657469    2.122005    0.952391
C        -3.990158   -3.305876   -0.956964
C         4.146615    1.189698    1.438352
C        -0.486194    1.012337    2.049744
O         5.051745   -3.271679    0.943856
C        -1.424321   -3.443481   -0.327583
C         4.658119    0.606899   -1.016214
C        -2.154922    2.457913    0.909457
O         0.809546    0.447728    2.041755
C         6.027415    1.270534   -0.793022
N         7.018249    0.424429   -0.371946
C        -5.281020   -0.778723    1.685918
C        -2.663292    1.307660   -1.337036
C         3.757302   -2.719541   -0.985064
C         0.916013   -4.393257    1.414415
C         2.518998   -3.379113    2.930402
C        -4.376990   -1.940696   -0.371260
C        -1.478687   -3.532839    1.218227
C        -4.990610   -2.122491    1.058738
C        -5.470394    1.924444    2.487773
C        -0.822944   -2.944920   -3.234831
C        -3.325876    2.236236   -2.428670
C         2.414128    2.850307    0.532326
O         3.773746   -3.223709    3.434935
C        -4.437788   -0.256664    2.677134
C         2.208561   -4.318763    1.932083
C        -0.103550   -3.542366    1.862389
C        -4.531307    1.071667    3.085949
C         0.207803   -2.657423    2.903056
C        -6.377550    1.393200    1.557488
C        -6.277351    0.060576    1.165548
C         0.259042   -0.945513   -4.066935
C         1.490462   -2.569627    3.434090
C         2.916602    3.853126   -0.573429
C        -3.388313    3.736319   -2.028999
C         1.845671    4.137302   -1.653045
C        -2.650446    2.054542   -3.804694
C        -0.079127   -2.393569   -4.466897
C         3.493168    5.167159   -0.012839
C        -2.049821    4.482232   -1.922216
C         1.442801    2.929901   -2.517708
H         1.762705   -2.212498   -0.514261
H        -3.227176   -0.384406    0.482690
H        -2.706648   -4.689730   -1.405879
H         3.727079    2.990930    2.152266
H         4.884106   -0.974745    1.726498
H        -0.469615    3.896258    1.976009
H        -3.933980    1.965103    0.198548
H         0.494718   -0.176645   -2.018776
H         2.867578    0.063112    0.067057
H        -4.638677    3.580182    2.953899
H        -0.290541    1.726591    0.012114
H        -1.252781    0.248591    1.913452
H        -0.653751    1.482728    3.018734
H        -0.769548   -4.251150   -0.655471
H         4.039945    1.324268   -1.541950
H         4.759107   -0.242253   -1.686427
H         0.765928   -0.337989    1.476050
H         7.874302    0.848397   -0.063846
H         6.801793   -0.473656    0.017036
H        -1.585147    1.318859   -1.473185
H         4.402992   -2.468821   -1.823978
H         3.660891   -3.804234   -0.977199
H         0.716978   -5.136098    0.651081
H        -5.186430   -1.624812   -1.029280
H        -2.058188   -2.701968    1.612604
H        -2.034163   -4.443357    1.457514
H        -4.315670   -2.696588    1.691872
H        -5.886876   -2.728610    0.933906
H        -1.895093   -2.792138   -3.313570
H        -0.634525   -4.007104   -3.077061
H        -4.364046    1.904637   -2.526813
H         1.966837    1.990022    0.050825
H         4.430578   -3.485496    2.760135
H        -3.682889   -0.890761    3.126384
H         2.977660   -4.981707    1.563352
H        -3.856738    1.456258    3.837774
H        -0.560258   -1.999191    3.287587
H        -7.125258    2.044887    1.127641
H        -6.959177   -0.317809    0.414044
H         1.061013   -0.512262   -4.655407
H        -0.621438   -0.310801   -4.149327
H         1.721750   -1.847984    4.203636
H         3.753103    3.344944   -1.053422
H        -4.003589    4.230616   -2.784990
H        -3.939376    3.858811   -1.095906
H         0.960131    4.579712   -1.193320
H         2.244078    4.907938   -2.316574
H        -3.073921    2.749063   -4.530244
H        -2.792697    1.048953   -4.181709
H        -1.579607    2.251218   -3.758949
H        -0.689884   -2.459776   -5.364978
H         0.838560   -2.951936   -4.651060
H         2.732467    5.811375    0.422222
H         4.249929    4.987657    0.746622
H         3.978398    5.717510   -0.818288
H        -1.510206    4.497052   -2.866880
H        -2.216613    5.518692   -1.632061
H        -1.386405    4.054203   -1.174941
H         0.766608    3.228958   -3.317224
H         0.929649    2.155318   -1.948727
H         2.308630    2.463558   -2.988320
