126
0 1
N         0.915122   -3.799863   -1.615171
N        -2.629878   -3.632584   -1.834496
O        -3.489937    1.035656   -1.166440
O        -0.086667   -2.234934   -0.316961
O        -0.521296    2.801082    1.067150
O         3.122398    3.654885   -2.024492
O        -1.196891   -2.895102   -3.464212
N         3.631884    1.621025   -1.169856
N         3.407217   -2.027992   -0.887037
N        -4.457639    1.888304    0.702703
N        -3.177623   -1.454623   -0.137826
O        -3.406915   -2.341333    3.465724
N        -2.687447    3.907012    0.044375
O         4.601239   -0.628103   -2.203228
C        -1.417772   -3.568792   -2.470428
C        -4.174382   -1.880374   -0.956210
C        -3.840574    3.853962   -0.682202
C         2.986448    2.822434   -1.130836
O        -3.975199    4.413769   -1.760540
N         0.935230    3.840846   -0.349714
C        -0.363894   -4.498254   -1.839229
C         0.945667   -2.771591   -0.721849
C        -3.405170   -0.374194    0.815275
O         9.833347    0.104771    0.147654
C        -1.443243    4.372466   -0.538607
C         3.825260   -0.778651   -1.269683
C        -3.808407    0.911396    0.003335
C        -1.316679    5.916143   -0.355789
O        -5.364757   -1.621128   -0.765795
C         2.292979   -2.407491   -0.024673
C        -4.407464   -0.736108    1.957410
C        -0.304279    3.582783    0.138326
O        -0.193669    6.487341   -1.033913
C        -4.181937   -2.137700    2.525073
N        -4.906395   -3.119961    1.937167
C         5.691468    0.330694    0.773033
C         2.130142    3.141456    0.111476
C        -3.743333   -2.754413   -2.144122
C         0.876908   -3.118515    2.660058
C        -1.050275   -4.567796    2.883492
C         3.386851    0.416173   -0.390575
C         2.687322   -3.558981    0.957333
C         4.193150    0.371642    0.958704
C         8.481399    0.221392    0.344622
C         1.990979   -4.297278   -2.498219
C         2.961068    3.967112    1.163581
C        -4.996798    3.093559    0.043853
O        -2.300522   -4.842239    3.349807
C         6.423734    1.489729    0.485989
C        -0.364524   -3.386611    3.219901
C         1.480535   -4.001955    1.755119
C         7.799714    1.442789    0.272111
C         0.825523   -5.209963    1.488534
C         7.766283   -0.945300    0.640962
C         6.392886   -0.881569    0.848923
C         0.025258   -5.662209   -2.779382
C        -0.419280   -5.500622    2.047003
C        -6.216030    2.835274   -0.893923
C         3.290785    5.402831    0.686669
C        -7.154359    1.709836   -0.386460
C         2.259580    3.956077    2.535922
C         1.228166   -5.107421   -3.560124
C        -6.986796    4.151600   -1.136896
C         4.416539    6.083541    1.484425
C        -7.839376    1.940823    0.972991
H        -2.679138   -4.137065   -0.967837
H         4.222979    1.476467   -1.975874
H         3.856873   -2.755073   -1.415172
H        -4.802710    1.685111    1.620563
H        -2.218260   -1.644758   -0.384317
H        -2.562218    3.286918    0.827836
H         1.039048    4.414919   -1.170093
H        -0.717643   -4.867173   -0.876361
H        -2.436196   -0.168994    1.270741
H        10.210849    0.969012   -0.064655
H        -1.444459    4.171656   -1.612067
H        -2.211265    6.353426   -0.793962
H        -1.321125    6.152001    0.712651
H         2.029025   -1.548091    0.577953
H        -5.427904   -0.636217    1.600992
H        -4.256660   -0.047145    2.786796
H         0.548370    6.549255   -0.420366
H        -5.450806   -2.934076    1.113525
H        -4.715853   -4.074718    2.180692
H         1.785346    2.237054    0.603455
H        -3.434431   -2.107351   -2.964723
H        -4.619995   -3.311975   -2.472230
H         1.367001   -2.184767    2.908945
H         2.324596    0.346943   -0.162845
H         3.107565   -4.395108    0.396522
H         3.489818   -3.182752    1.596120
H         3.897953    1.239116    1.545981
H         3.863184   -0.495915    1.529968
H         2.538628   -3.473877   -2.948126
H         2.697065   -4.930759   -1.951795
H         3.913121    3.439299    1.274826
H        -5.318255    3.738960    0.864805
H        -2.716472   -4.002131    3.652463
H         5.921877    2.444706    0.423296
H        -0.821813   -2.671337    3.887149
H         8.339526    2.356436    0.052591
H         1.279083   -5.926938    0.814895
H         8.296834   -1.884599    0.704890
H         5.857002   -1.794709    1.073752
H        -0.797282   -5.969276   -3.422306
H         0.316410   -6.528948   -2.183214
H        -0.923028   -6.431696    1.825959
H        -5.814477    2.502431   -1.851236
H         2.386843    6.015655    0.755344
H         3.567269    5.385931   -0.366062
H        -7.932278    1.577513   -1.142806
H        -6.618168    0.762094   -0.371037
H         2.063210    2.942362    2.881946
H         2.867906    4.446228    3.293933
H         1.300705    4.469967    2.498629
H         1.845986   -5.882156   -4.011412
H         0.882500   -4.441335   -4.347767
H        -7.850326    3.974530   -1.778364
H        -6.358468    4.889658   -1.623787
H        -7.359486    4.587867   -0.208535
H         4.627627    7.075090    1.085062
H         4.172119    6.207533    2.538564
H         5.342951    5.509835    1.429407
H        -7.129643    2.060913    1.793542
H        -8.474595    1.093564    1.231247
H        -8.473086    2.826507    0.973377
