118
0 1
C         3.174777    1.924982   -1.945622
C         4.500105    2.661671   -1.556682
C         4.645313    2.931164   -0.086316
C         5.031050    2.003644    0.950955
C         5.430943    0.656219    0.966544
C         5.764106    0.061924    2.177195
C         5.706197    0.785443    3.385784
C         5.319042    2.121143    3.406613
C         4.990717    2.715106    2.186250
C         4.400696    4.137251    0.537184
C         3.093726    0.461378   -1.403622
C         3.519251   -1.985806   -1.978311
C         4.611485   -2.599362   -2.863987
C         4.870330   -1.522139   -3.919809
C         4.826606   -0.231828   -3.097374
C         3.329861   -2.831170   -0.663239
C         1.803858   -3.143662    1.250575
C         1.214685   -2.251281    2.381729
C         0.325631   -3.068816    3.340828
C         2.326094   -1.467139    3.133135
C         3.370767   -2.317603    3.873248
C         0.746155   -4.082058    0.598120
C        -0.442819   -2.269858   -0.838307
C        -0.433840   -2.109540   -2.366330
C        -1.791848   -1.839606   -0.189624
C        -4.284379   -1.801344   -0.595385
C        -4.748321   -1.944614    0.880378
C        -6.075689   -1.263638    1.148432
C        -7.240283   -1.628687    0.458205
C        -8.450068   -0.979014    0.703259
C        -8.519835    0.044499    1.650787
C        -7.369820    0.413212    2.349580
C        -6.159789   -0.233467    2.094591
C        -4.473471   -0.386722   -1.225731
C        -3.829738    2.007567   -1.064364
C        -4.796399    2.918772   -0.230317
C        -4.546580    4.419329   -0.478886
C        -6.263197    2.550583   -0.529204
C        -2.407624    2.600889   -1.265433
C        -0.136401    3.051378   -0.473407
C         0.470125    3.107622    0.960775
C        -0.756256    3.068503    1.882699
C        -1.674599    2.091428    1.140493
C         0.757217    2.255050   -1.466115
N         2.061986    2.702661   -1.435162
N         4.597186    4.009824    1.900325
N         3.827421   -0.501959   -2.026664
N         2.499053   -2.318910    0.268372
N        -0.057416   -3.620929   -0.433160
N        -2.907194   -2.276356   -0.827436
N        -3.826217    0.624110   -0.580078
N        -1.464123    2.448208   -0.279447
O         2.339112    0.232705   -0.454571
O         3.781836   -3.971168   -0.642097
O         0.653211   -5.245212    0.960425
O        -1.315882   -3.088518   -2.962876
O        -1.798051   -1.160511    0.842294
O        -5.139297   -0.246764   -2.243614
O        -2.153336    3.209748   -2.298626
O         0.365919    1.368317   -2.202629
H         3.101350    1.889286   -3.032977
H         4.514714    3.604226   -2.105963
H         5.352862    2.091914   -1.919379
H         5.479703    0.082251    0.053620
H         6.068119   -0.975360    2.194661
H         5.972458    0.296071    4.312616
H         5.279514    2.679330    4.332756
H         4.123951    5.085741    0.107881
H         2.555417   -2.093170   -2.484546
H         5.504477   -2.793432   -2.269059
H         4.296855   -3.552508   -3.278125
H         5.816712   -1.642829   -4.444783
H         4.077297   -1.516442   -4.670438
H         4.554407    0.630293   -3.699108
H         5.801803   -0.027946   -2.648396
H         2.509735   -3.849668    1.681366
H         0.565969   -1.504950    1.917743
H         0.831315   -3.950173    3.730941
H         0.021466   -2.453429    4.187360
H        -0.582854   -3.410641    2.850835
H         2.842008   -0.802246    2.440153
H         1.828539   -0.809800    3.851806
H         3.968753   -2.920046    3.190552
H         4.061833   -1.676575    4.418838
H         2.918357   -2.994475    4.597014
H         0.277066   -1.557192   -0.462967
H         0.583652   -2.266286   -2.727582
H        -0.724915   -1.086103   -2.613536
H        -4.913622   -2.436586   -1.213474
H        -3.989320   -1.550213    1.546352
H        -4.811779   -3.014185    1.095810
H        -7.205788   -2.422714   -0.276465
H        -9.336079   -1.272460    0.155500
H        -9.458658    0.547967    1.840390
H        -7.411128    1.204761    3.086654
H        -5.270690    0.062531    2.637010
H        -4.220347    1.964642   -2.077017
H        -4.621679    2.717197    0.831201
H        -3.557882    4.737226   -0.150942
H        -5.277270    5.019467    0.063260
H        -4.630352    4.668412   -1.535988
H        -6.522479    2.787130   -1.561543
H        -6.937899    3.109791    0.119186
H        -6.464576    1.495969   -0.374448
H        -0.262167    4.053569   -0.891509
H         1.088922    3.990877    1.116716
H         1.097449    2.233927    1.136694
H        -1.226043    4.051771    1.950978
H        -0.520386    2.738056    2.893821
H        -2.713068    2.203247    1.431688
H        -1.373833    1.061519    1.326881
H         2.308664    3.272826   -0.645271
H         4.520097    4.752378    2.567375
H         2.279317   -1.332531    0.178079
H        -0.656301   -4.353369   -0.778271
H        -2.744647   -2.722756   -1.719333
H        -3.272045    0.378548    0.219545
H        -1.446617   -2.866578   -3.893627
