118
0 1
C        -2.551460   -1.272346   -1.085872
C        -3.553814   -1.833246   -0.015445
C        -4.711696   -2.594168   -0.601070
C        -6.106378   -2.390977   -0.300365
C        -6.802700   -1.512427    0.548291
C        -8.190788   -1.573435    0.588894
C        -8.904237   -2.500647   -0.198605
C        -8.244030   -3.388933   -1.042415
C        -6.849722   -3.324386   -1.082760
C        -4.652972   -3.620340   -1.517648
C        -2.210723    0.235303   -0.893889
C        -3.002778    2.494864   -0.469656
C        -4.381040    3.184057   -0.647951
C        -5.386105    2.017112   -0.721170
C        -4.604357    0.937918   -1.480372
C        -2.619674    2.354502    1.027886
C        -0.422955    3.604712    0.694989
C        -0.738661    5.142120    0.505424
C        -0.286976    5.982521    1.713830
C        -0.269948    5.719605   -0.852267
C        -0.933727    7.060016   -1.215121
C         0.873635    3.275104    1.491572
C         2.449981    3.498631   -0.542243
C         3.337421    4.777849   -0.526991
C         3.233774    2.338864   -1.236032
C         3.578311   -0.133405   -0.892166
C         4.547669   -0.347871   -2.080607
C         5.123502   -1.749908   -2.030246
C         6.440351   -1.971670   -1.609545
C         6.958256   -3.265705   -1.527093
C         6.161119   -4.363197   -1.858290
C         4.843471   -4.155785   -2.274510
C         4.331749   -2.860623   -2.361807
C         4.357738   -0.110845    0.456881
C         3.346544   -2.301485    1.239960
C         3.784263   -3.509963    2.137168
C         5.311898   -3.742620    2.089216
C         3.070990   -4.809448    1.701991
C         1.948702   -1.667843    1.525402
C        -0.426794   -2.182383    1.194530
C        -0.999502   -1.017421    2.062160
C        -0.399018   -1.289726    3.473270
C         0.539796   -2.516375    3.282856
C        -0.225635   -2.082670   -0.334238
N        -1.313434   -2.048066   -1.196708
N        -5.934198   -4.059544   -1.810270
N        -3.222159    1.131283   -1.002252
N        -1.494183    2.969405    1.468076
N         2.053783    3.135027    0.816941
N         2.779440    1.097667   -0.933703
N         4.349457   -1.238724    1.237694
N         0.867331   -2.571842    1.826793
O        -1.063920    0.590648   -0.618180
O        -3.354224    1.716950    1.782114
O         0.817674    3.079589    2.703087
O         3.553284    5.308317   -1.820519
O         4.151379    2.592782   -2.016200
O         4.998527    0.881332    0.785020
O         1.799958   -0.464514    1.445533
O         0.889006   -2.262307   -0.817221
H        -3.034835   -1.377725   -2.056329
H        -3.920950   -1.018667    0.604541
H        -3.004250   -2.483082    0.659296
H        -6.268543   -0.805633    1.169347
H        -8.735305   -0.902156    1.239384
H        -9.984310   -2.525643   -0.144057
H        -8.792137   -4.103034   -1.643146
H        -3.796012   -4.079687   -1.979994
H        -2.239597    3.002276   -1.052040
H        -4.599770    3.880598    0.158643
H        -4.384416    3.752852   -1.579078
H        -5.619876    1.664728    0.280582
H        -6.317621    2.282823   -1.218669
H        -4.647739    1.105751   -2.561962
H        -4.977899   -0.060922   -1.292370
H        -0.363662    3.116040   -0.272738
H        -1.832244    5.174687    0.484090
H        -0.681589    6.994978    1.660058
H        -0.628749    5.549770    2.651539
H         0.799073    6.058542    1.769269
H        -0.500519    4.999073   -1.643112
H         0.809928    5.852863   -0.877736
H        -2.022315    6.982644   -1.213752
H        -0.629099    7.383124   -2.209826
H        -0.661432    7.856289   -0.524142
H         1.562067    3.705742   -1.133484
H         4.273345    4.541984   -0.004672
H         2.829712    5.541583    0.060946
H         2.853612   -0.935646   -0.924246
H         3.986126   -0.196816   -3.003132
H         5.333730    0.399505   -2.064880
H         7.060225   -1.126180   -1.340553
H         7.980214   -3.414980   -1.203039
H         6.561100   -5.366827   -1.795022
H         4.217349   -4.999139   -2.536347
H         3.307074   -2.712044   -2.678665
H         3.258124   -2.694774    0.227517
H         3.514261   -3.291892    3.175674
H         5.660904   -3.875972    1.067168
H         5.559828   -4.645561    2.647432
H         5.891835   -2.933345    2.527550
H         3.404457   -5.106452    0.706445
H         3.314651   -5.623620    2.384530
H         1.993588   -4.694196    1.669830
H        -1.070184   -3.057259    1.338187
H        -2.083154   -0.999405    2.085540
H        -0.665437   -0.064837    1.680179
H        -1.164777   -1.497482    4.220406
H         0.157101   -0.419620    3.815766
H         0.033650   -3.446945    3.545232
H         1.445798   -2.466146    3.882167
H        -0.944246   -2.045888   -2.134768
H        -6.159032   -4.796764   -2.449188
H        -1.266639    2.815236    2.439525
H         2.811258    2.856739    1.423504
H         2.029224    1.062502   -0.263378
H         4.808952   -1.065979    2.116951
H         4.022553    4.605196   -2.301752
