118
0 1
C         1.938937   -2.930988   -0.671371
C         3.176808   -2.983956   -1.629731
C         3.928765   -1.695301   -1.752099
C         5.051659   -1.263293   -0.958050
C         5.798723   -1.854965    0.071984
C         6.832505   -1.128864    0.650198
C         7.134467    0.180177    0.224444
C         6.417914    0.789683   -0.801657
C         5.386441    0.054051   -1.389294
C         3.638509   -0.660580   -2.616278
C         2.340651   -3.093558    0.828680
C         1.454189   -0.835635    1.735539
C         1.000180   -0.556668    3.183940
C         1.992231   -1.355359    4.046887
C         2.297178   -2.605848    3.205489
C         2.660895    0.030337    1.308362
C         1.454701    1.984249    0.227888
C         1.865325    3.116299    1.251236
C         3.345732    3.540275    1.145148
C         0.914858    4.339994    1.276101
C         1.159507    5.431574    0.217795
C         1.375934    2.421385   -1.253935
C        -1.213867    2.528163   -1.389549
C        -1.795863    3.980631   -1.226114
C        -2.060430    1.830972   -2.472758
C        -3.727529    0.756721   -0.852175
C        -4.423404    1.713067    0.183043
C        -3.542998    2.364933    1.236978
C        -2.593389    1.635484    1.971842
C        -1.874181    2.239751    3.004897
C        -2.082442    3.582579    3.324244
C        -3.018151    4.319477    2.597700
C        -3.740064    3.713215    1.568569
C        -4.777506   -0.310721   -1.259907
C        -4.250718   -1.729753    0.786024
C        -5.043201   -2.765263    1.647187
C        -4.415554   -2.932166    3.045211
C        -5.229814   -4.136790    0.969057
C        -2.794873   -2.181825    0.482797
C        -1.025773   -3.103510   -0.874247
C        -1.003819   -4.014421   -2.124615
C        -2.218476   -3.522139   -2.923907
C        -3.268806   -3.257514   -1.837083
C        -0.272920   -1.767425   -1.117066
N         1.079804   -1.819195   -1.046076
N         4.528552    0.380935   -2.427997
N         1.915625   -2.244402    1.812601
N         2.467332    0.910718    0.252450
N         0.166423    2.587103   -1.858155
N        -3.309704    1.398804   -2.098852
N        -5.047426   -1.311325   -0.366280
N        -2.459171   -2.828067   -0.667121
O         2.960312   -4.121120    1.105206
O         3.769270   -0.166207    1.782923
O         2.417963    2.582963   -1.895612
O        -1.573093    4.806275   -2.356762
O        -1.706435    1.849744   -3.643369
O        -5.389080   -0.234553   -2.320789
O        -1.938701   -1.927234    1.338922
O        -0.868294   -0.726310   -1.388284
H         1.401875   -3.857117   -0.854977
H         3.820247   -3.789029   -1.282098
H         2.797921   -3.285191   -2.607968
H         5.551455   -2.844822    0.429811
H         7.408283   -1.568875    1.453547
H         7.939043    0.723135    0.702661
H         6.653498    1.792030   -1.134579
H         2.874081   -0.589024   -3.371344
H         0.618686   -0.729939    1.059780
H         0.991304    0.507456    3.417570
H        -0.016533   -0.932902    3.297588
H         2.901628   -0.781108    4.205601
H         1.582504   -1.607898    5.024035
H         1.710026   -3.472237    3.513922
H         3.344274   -2.893220    3.245022
H         0.504384    1.568383    0.553275
H         1.745095    2.625808    2.223155
H         3.548439    4.352361    1.843218
H         3.604097    3.887935    0.147918
H         4.023645    2.730583    1.403236
H        -0.115874    3.992202    1.232814
H         1.007555    4.804178    2.261430
H         1.170387    5.045416   -0.798173
H         2.112270    5.934400    0.371760
H         0.383309    6.194547    0.270527
H        -1.274495    2.016428   -0.436795
H        -1.399405    4.419834   -0.311155
H        -2.872217    3.917981   -1.108278
H        -2.867276    0.272360   -0.402998
H        -4.962378    2.469101   -0.386353
H        -5.196358    1.149099    0.711221
H        -2.405908    0.592143    1.761561
H        -1.159582    1.653797    3.565742
H        -1.522694    4.047061    4.125012
H        -3.188814    5.362782    2.828728
H        -4.469796    4.294572    1.019368
H        -4.110987   -0.864028    1.429079
H        -6.032849   -2.315175    1.781364
H        -4.311922   -1.976580    3.556999
H        -5.044267   -3.572237    3.663223
H        -3.426330   -3.381347    2.996707
H        -5.719484   -4.076381   -0.002548
H        -5.851410   -4.780595    1.589705
H        -4.276550   -4.645342    0.829592
H        -0.623258   -3.592811    0.008426
H        -0.074260   -3.944290   -2.684531
H        -1.128935   -5.056587   -1.825683
H        -1.980255   -2.592045   -3.439266
H        -2.566816   -4.236314   -3.668085
H        -3.821735   -4.167497   -1.598156
H        -3.976502   -2.505924   -2.154313
H         1.543883   -0.935728   -1.202757
H         4.335487    1.317976   -2.730798
H         3.354482    1.244661   -0.091642
H         0.227014    2.687337   -2.861583
H        -3.877427    1.112150   -2.883886
H        -5.775459   -1.927588   -0.685814
H        -0.624660    4.976781   -2.430102
