51
0 1
N        -1.088591   -2.396373   -0.975933
C        -0.011106   -1.571308   -0.417017
C         0.377314   -0.556511   -1.526294
O         0.690944   -1.015230   -2.625121
C         1.224243   -2.451406   -0.072038
C         2.378684   -1.628685    0.457660
C         2.422148   -1.245762    1.805878
C         3.403898   -1.197064   -0.395617
C         4.453288   -0.415467    0.090294
C         3.467604   -0.460797    2.293636
C         4.489777   -0.046069    1.436572
N         0.326085    0.785989   -1.277698
C         0.228483    1.489994    0.022348
C        -0.952513    2.523221    0.032630
O        -0.711813    3.724624    0.022691
C         1.578702    2.227284    0.088256
C         1.858896    2.643355   -1.379695
C         0.946750    1.727017   -2.244603
N        -2.246889    2.048525    0.042575
C        -2.596727    0.647092    0.160343
C        -2.284564    0.066726    1.562814
O        -1.921693    0.765775    2.495918
C        -3.341226    3.004842    0.246432
N        -2.370431   -1.299565    1.667967
C        -3.007875   -2.232908    0.739300
C        -2.374201   -2.677091   -0.611889
O        -3.101491   -3.344699   -1.336313
H        -0.879686   -2.739395   -1.902588
H        -0.354642   -1.113570    0.493375
H         0.904689   -3.192083    0.662479
H         1.519907   -2.994668   -0.968421
H         1.638490   -1.570431    2.479971
H         3.375655   -1.472553   -1.441184
H         5.240270   -0.097786   -0.581225
H         3.485598   -0.178033    3.337967
H         5.303550    0.558919    1.813812
H         0.121501    0.795337    0.845365
H         2.329553    1.525355    0.438472
H         1.555057    3.071163    0.769895
H         1.614873    3.689520   -1.541722
H         2.908362    2.503327   -1.633926
H         1.475307    1.152234   -2.996201
H         0.165617    2.295461   -2.749074
H        -2.112159    0.068148   -0.618974
H        -3.664108    0.540963   -0.034272
H        -4.151677    2.804788   -0.453929
H        -2.970356    4.007666    0.081927
H        -3.727759    2.935993    1.264323
H        -2.161489   -1.637777    2.592242
H        -3.170291   -3.159176    1.286236
H        -4.004511   -1.885978    0.465620
