51
0 1
N         1.167630   -0.858681   -1.494423
C         0.726977    0.379403   -0.850392
C        -0.446069    1.024256   -1.624213
O        -0.453600    1.057030   -2.847983
C         1.902921    1.397524   -0.819212
C         3.106847    0.878728   -0.060371
C         3.060326    0.745737    1.336448
C         4.270112    0.490237   -0.738202
C         5.364542   -0.026031   -0.039386
C         4.153080    0.231942    2.032556
C         5.307991   -0.157164    1.347741
N        -1.489417    1.522017   -0.875586
C        -1.484167    1.850720    0.575983
C        -1.164046    0.784302    1.661516
O        -0.385848    1.136433    2.549015
C        -2.873836    2.492812    0.794333
C        -3.139125    3.211810   -0.538304
C        -2.587920    2.232783   -1.584276
N        -1.793972   -0.431617    1.717762
C        -2.738225   -0.991710    0.735873
C        -2.419082   -2.486675    0.434867
O        -2.866504   -3.363366    1.164885
C        -1.560908   -1.225923    2.942877
N        -1.599463   -2.789104   -0.614483
C        -1.085357   -1.951958   -1.692272
C         0.458458   -2.005443   -1.721249
O         1.007119   -3.071719   -1.968458
H         2.161999   -1.023603   -1.483430
H         0.453104    0.161164    0.177129
H         1.535255    2.314513   -0.355808
H         2.161286    1.647508   -1.848088
H         2.169706    1.039253    1.876785
H         4.325094    0.600132   -1.814445
H         6.255050   -0.320599   -0.579022
H         4.103488    0.136908    3.109443
H         6.154091   -0.556454    1.891300
H        -0.719609    2.605535    0.763824
H        -3.630119    1.727694    0.973295
H        -2.869464    3.150354    1.661224
H        -4.190736    3.445054   -0.696768
H        -2.587394    4.152681   -0.575341
H        -2.202815    2.714556   -2.478248
H        -3.343832    1.513482   -1.909785
H        -2.743727   -0.371043   -0.148185
H        -3.747574   -0.993047    1.150344
H        -2.382986   -1.916612    3.082621
H        -0.639078   -1.802082    2.870401
H        -1.478704   -0.562710    3.796018
H        -1.375338   -3.769037   -0.681540
H        -1.419479   -2.344831   -2.653925
H        -1.506110   -0.966238   -1.606250
