65
0 1
N         0.988639   -1.336226    1.282088
C         0.847305   -0.212241    0.354547
C         1.583098    0.979672    1.022938
O         2.569380    0.740665    1.714197
C         1.529902   -0.462211   -1.040582
C         3.039003   -0.507867   -1.022317
C         3.730104   -1.652283   -0.601704
C         3.781832    0.610710   -1.424356
C         5.124325   -1.672568   -0.568202
C         5.176184    0.593195   -1.395103
C         5.852805   -0.548740   -0.963090
N         1.244613    2.269119    0.686855
C        -0.108348    2.829624    0.492945
C        -0.966128    2.236378   -0.642969
O        -0.523576    1.962298   -1.748520
C         0.186865    4.315118    0.186278
C         1.360893    4.631315    1.123203
C         2.196808    3.341468    1.106526
N        -2.285740    2.126456   -0.296737
C        -3.343423    1.802305   -1.243951
C        -4.545889    1.059685   -0.639128
O        -5.670255    1.350210   -1.020511
N        -4.396198    0.135571    0.385845
C        -3.305709   -0.768376    0.794739
C        -2.569375   -1.337158   -0.466815
O        -2.993882   -1.084890   -1.588918
C        -2.470034   -0.180230    1.957349
N        -1.506941   -2.188828   -0.311806
C        -1.056363   -2.878212    0.914675
C         0.175254   -2.346996    1.710721
O         0.441536   -2.960035    2.741330
C        -0.731450   -4.305198    0.394938
C        -0.164615   -4.037322   -1.006806
C        -1.084258   -2.931477   -1.537311
H         1.780432   -1.209527    1.898055
H        -0.197069   -0.016441    0.169656
H         1.133857   -1.400437   -1.415813
H         1.180667    0.318956   -1.709750
H         3.176327   -2.529640   -0.294826
H         3.260915    1.496524   -1.765294
H         5.640317   -2.565055   -0.238249
H         5.731853    1.466062   -1.713319
H         6.934624   -0.565604   -0.940493
H        -0.657836    2.766115    1.440703
H         0.484195    4.402197   -0.859239
H        -0.687013    4.946326    0.341550
H         1.933261    5.501736    0.806682
H         0.994794    4.835582    2.130841
H         3.013314    3.379536    0.384754
H         2.633499    3.105500    2.072753
H        -2.576288    2.487632    0.593803
H        -2.911847    1.205044   -2.039649
H        -3.754542    2.706811   -1.693064
H        -5.311319   -0.216186    0.612509
H        -3.823966   -1.635297    1.215925
H        -3.148522    0.309517    2.652816
H        -1.935360   -0.937493    2.519445
H        -1.749382    0.554253    1.626277
H        -1.861130   -2.934049    1.642613
H        -0.061892   -4.838086    1.062717
H        -1.658447   -4.877553    0.324482
H        -0.173813   -4.915770   -1.649840
H         0.869260   -3.697188   -0.940390
H        -0.617872   -2.262003   -2.254916
H        -1.969970   -3.341639   -2.024214
