65
0 1
N         1.277701   -0.335955   -0.386291
C         2.095159    0.747592   -0.928601
C         1.405086    2.056342   -1.401481
O         1.836297    2.569347   -2.429089
C         3.217261    1.119616    0.085427
C         4.060041   -0.072956    0.486594
C         4.992114   -0.620025   -0.408018
C         3.890594   -0.687062    1.735833
C         5.730902   -1.750865   -0.064138
C         4.627619   -1.822914    2.081293
C         5.548883   -2.358542    1.181500
N         0.479187    2.699925   -0.624557
C        -0.079591    2.348272    0.688554
C        -1.612709    2.090649    0.646332
O        -2.289323    2.199303    1.671988
C         0.189533    3.627584    1.504076
C        -0.174677    4.731652    0.486757
C         0.228974    4.142100   -0.891153
N        -2.143405    1.787816   -0.564294
C        -3.573692    1.513801   -0.726352
C        -3.895629    0.036475   -0.399071
O        -4.225355   -0.767050   -1.260977
N        -3.716342   -0.274858    0.924979
C        -3.355559   -1.641697    1.329593
C        -1.847544   -1.764145    0.975934
O        -1.002695   -1.149352    1.633069
C        -3.602639   -1.851399    2.824036
N        -1.509118   -2.438666   -0.154026
C        -0.126382   -2.333586   -0.651089
C         0.227449   -0.878334   -1.054675
O        -0.365085   -0.295537   -1.959885
C        -0.111493   -3.260272   -1.890772
C        -1.242617   -4.266395   -1.611168
C        -2.317048   -3.393577   -0.946583
H         1.675907   -0.872928    0.363917
H         2.573579    0.392551   -1.842847
H         3.831777    1.881999   -0.393257
H         2.778311    1.581462    0.969702
H         5.140781   -0.155491   -1.374875
H         3.186297   -0.270766    2.446019
H         6.449511   -2.155738   -0.764782
H         4.483603   -2.280743    3.051147
H         6.122951   -3.236227    1.447401
H         0.379399    1.457920    1.104701
H         1.247360    3.670009    1.768000
H        -0.394931    3.668585    2.418093
H         0.332044    5.674068    0.687142
H        -1.245233    4.931286    0.525300
H        -0.548645    4.270794   -1.643425
H         1.138402    4.580120   -1.293921
H        -1.524591    1.485826   -1.300791
H        -4.126093    2.192209   -0.078769
H        -3.854399    1.701463   -1.757821
H        -3.336687    0.460517    1.507779
H        -3.972853   -2.318631    0.748703
H        -3.372026   -2.877122    3.110319
H        -2.970841   -1.194473    3.417936
H        -4.644452   -1.654974    3.069221
H         0.561236   -2.692522    0.118027
H         0.861840   -3.724954   -2.038470
H        -0.343677   -2.675368   -2.779475
H        -0.907295   -5.043979   -0.921924
H        -1.605546   -4.758610   -2.512409
H        -2.927601   -2.861455   -1.674035
H        -2.979179   -3.970228   -0.305106
