100
0 1
N        -1.733573    2.645349    0.635883
C        -1.605644    2.769402   -0.815832
C        -3.006905    2.982670   -1.472514
C        -2.916360    2.995184   -3.010869
C        -3.646516    4.288623   -0.958787
C        -0.753355    1.662492   -1.493717
O         0.125167    2.014007   -2.288327
N        -0.856325    0.332826   -1.177142
C        -1.961947   -0.576777   -0.803206
C        -3.011864   -0.760050   -1.931997
C        -3.886283   -1.974515   -1.691364
C        -3.390436   -3.258946   -1.955353
C        -5.180505   -1.849397   -1.171198
C        -4.165812   -4.390478   -1.707179
C        -5.960786   -2.980176   -0.927049
C        -5.456436   -4.254159   -1.192638
C        -2.637740   -0.242044    0.546103
O        -3.700382    0.391773    0.595661
N        -2.027409   -0.680930    1.669336
C        -0.680008   -1.260729    1.771964
C        -0.384076   -1.185735    3.296075
C        -1.781413   -1.290710    3.933617
C        -2.650679   -0.450507    2.991918
C        -0.643368   -2.721334    1.255577
O        -1.637576   -3.431637    1.234103
N         0.577257   -3.182705    0.820851
C         1.882318   -2.532143    0.886798
C         3.047088   -3.529432    0.590388
C         3.139869   -4.610047    1.688212
C         3.005755   -4.154066   -0.818455
C         1.962399   -1.305295   -0.064943
O         1.586975   -1.346032   -1.233929
N         2.512575   -0.222835    0.540883
C         2.605010    1.122857   -0.012157
C         4.113090    1.523887   -0.088798
C         4.919453    0.417258   -0.737774
C         4.762756    0.129192   -2.100312
C         5.772534   -0.390781    0.023489
C         5.432997   -0.945859   -2.683108
C         6.448298   -1.466131   -0.556986
C         6.275553   -1.750508   -1.912641
C         1.745881    2.011646    0.940689
O         1.466839    1.582048    2.064715
N         1.258211    3.201881    0.506753
C         0.322048    3.924949    1.403379
C         0.183196    5.325021    0.756139
C         1.481053    5.481280   -0.062425
C         1.748460    4.063006   -0.595805
C        -1.015211    3.185081    1.673876
O        -1.428763    3.106116    2.824862
H        -2.576606    2.194365    0.955711
H        -1.034314    3.662497   -1.041331
H        -3.646549    2.155477   -1.163730
H        -2.248729    3.780341   -3.366977
H        -3.899623    3.177772   -3.443245
H        -2.552546    2.055735   -3.420209
H        -3.066483    5.162351   -1.263586
H        -3.734416    4.310625    0.125160
H        -4.648846    4.408632   -1.368738
H        -0.102719   -0.171561   -1.624310
H        -1.465287   -1.535221   -0.703180
H        -3.616598    0.136439   -2.029100
H        -2.458246   -0.875847   -2.865317
H        -2.391325   -3.374764   -2.358349
H        -5.567992   -0.866775   -0.943781
H        -3.764034   -5.373745   -1.914946
H        -6.959896   -2.864505   -0.526726
H        -6.060809   -5.131026   -0.999711
H         0.012792   -0.632539    1.227211
H         0.072802   -0.221852    3.514378
H         0.297661   -1.966349    3.631380
H        -1.804460   -0.923191    4.958079
H        -2.120678   -2.326368    3.936746
H        -2.610630    0.611884    3.238461
H        -3.694513   -0.753403    2.967148
H         0.535263   -4.122804    0.469112
H         2.042392   -2.183269    1.910202
H         3.953711   -2.920786    0.647310
H         3.216022   -4.171358    2.683436
H         2.275628   -5.274209    1.691390
H         4.021093   -5.232372    1.536068
H         2.140698   -4.802584   -0.963990
H         2.985293   -3.399752   -1.598020
H         3.889616   -4.772671   -0.970437
H         2.568473   -0.230268    1.545185
H         2.173774    1.117346   -1.009287
H         4.481279    1.723106    0.918998
H         4.222608    2.452541   -0.648039
H         4.102256    0.736151   -2.706242
H         5.904459   -0.182032    1.077944
H         5.294053   -1.156452   -3.735307
H         7.105262   -2.077681    0.048032
H         6.793753   -2.585879   -2.364677
H         0.772466    4.008292    2.390349
H         0.060157    6.093775    1.516011
H        -0.689267    5.386213    0.108472
H         1.396025    6.214162   -0.863649
H         2.299410    5.797704    0.586715
H         2.802652    3.892287   -0.786838
H         1.207260    3.849881   -1.515105
