100
0 1
N         2.005625    3.506963    0.143105
C         3.326825    3.253593   -0.420775
C         3.494209    3.920121   -1.816710
C         2.540843    3.347992   -2.887768
C         3.379409    5.454137   -1.719495
C         3.696340    1.750255   -0.492794
O         4.860659    1.385282   -0.613129
N         2.642877    0.891573   -0.447953
C         2.808713   -0.549041   -0.493717
C         3.012757   -1.070270   -1.959727
C         3.150570   -2.574086   -2.010566
C         4.401594   -3.182884   -1.833506
C         2.021424   -3.395114   -2.148040
C         4.519933   -4.573023   -1.779102
C         2.135443   -4.784479   -2.089437
C         3.385541   -5.378695   -1.899331
C         1.527374   -1.171208    0.071611
O         0.432166   -0.752958   -0.343779
N         1.618244   -2.190590    0.942411
C         0.398922   -2.926452    1.337572
C         0.970537   -4.223602    1.958548
C         2.316318   -3.784260    2.564618
C         2.848729   -2.755151    1.552868
C        -0.406696   -2.117682    2.380946
O         0.120421   -1.751823    3.426577
N        -1.744234   -1.926754    2.150644
C        -2.458720   -1.802045    0.866155
C        -3.580953   -2.862904    0.695868
C        -4.312816   -2.651610   -0.642575
C        -4.569676   -2.953443    1.873576
C        -2.945810   -0.330532    0.788783
O        -3.901726    0.076853    1.445120
N        -2.171135    0.468680    0.002276
C        -2.435504    1.892521   -0.168128
C        -2.940911    2.202301   -1.601436
C        -4.104845    1.330953   -2.023181
C        -3.950529    0.378803   -3.038376
C        -5.364314    1.462024   -1.420874
C        -5.023625   -0.412165   -3.453547
C        -6.437347    0.668907   -1.825761
C        -6.272207   -0.269526   -2.847729
C        -1.196847    2.775191    0.162633
O        -0.749097    3.563092   -0.684792
N        -0.665337    2.700117    1.410771
C         0.297060    3.737756    1.878377
C         0.089031    3.739815    3.397638
C        -0.228410    2.268501    3.716647
C        -1.078849    1.803359    2.521108
C         1.764766    3.391453    1.480077
O         2.616509    3.057153    2.294086
H         1.226412    3.759272   -0.448211
H         4.068137    3.681894    0.253649
H         4.515865    3.676447   -2.118015
H         1.490390    3.531610   -2.659905
H         2.738249    3.811392   -3.853874
H         2.665893    2.274144   -3.013561
H         3.613254    5.918678   -2.677199
H         2.375245    5.774334   -1.442267
H         4.068479    5.860708   -0.979346
H         1.705412    1.246327   -0.404111
H         3.694148   -0.803150    0.082042
H         3.903749   -0.578433   -2.345131
H         2.162803   -0.734013   -2.552613
H         5.284350   -2.563479   -1.733667
H         1.049619   -2.941525   -2.293927
H         5.494376   -5.024166   -1.643995
H         1.252725   -5.401155   -2.200796
H         3.475713   -6.456120   -1.856622
H        -0.183643   -3.148435    0.449316
H         0.295936   -4.670405    2.685982
H         1.128736   -4.950058    1.160162
H         3.009230   -4.613567    2.697935
H         2.153254   -3.313645    3.529943
H         3.433733   -1.971988    2.030024
H         3.461042   -3.227328    0.786577
H        -2.203665   -1.476384    2.927604
H        -1.738530   -1.960254    0.072889
H        -3.047149   -3.819702    0.645819
H        -3.621539   -2.583718   -1.482786
H        -4.904348   -1.739467   -0.635222
H        -4.991611   -3.479361   -0.845871
H        -5.264617   -3.777789    1.712752
H        -5.146605   -2.040239    1.985126
H        -4.058882   -3.147965    2.815946
H        -1.326426    0.087084   -0.394639
H        -3.221714    2.134584    0.547275
H        -2.112242    2.089529   -2.298888
H        -3.217201    3.256704   -1.641896
H        -2.984721    0.262377   -3.514336
H        -5.508803    2.187279   -0.630578
H        -4.882803   -1.136355   -4.245613
H        -7.400814    0.785802   -1.346859
H        -7.106207   -0.881517   -3.165335
H         0.027040    4.686243    1.414689
H        -0.757833    4.382333    3.644624
H         0.963509    4.107263    3.926783
H        -0.751578    2.134708    4.661752
H         0.693550    1.693021    3.766292
H        -2.148130    1.900660    2.710575
H        -0.875210    0.770048    2.269381
