160
0 1
O         4.864254   -5.433398    1.136412
O         2.809117   -2.906060   -1.467353
O         2.489991    2.417105   -2.186720
O         0.041135    0.819898   -1.562426
O        -2.215676    1.403298    2.285622
O        -3.889195    2.142913   -2.074779
O        -5.007627   -1.674289    0.853827
O        -1.145759   -2.923244   -1.834003
O         2.737949   -0.955031    1.532503
N         2.460767   -3.198250    1.638682
N         5.055161   -3.578887   -0.122708
N         3.314013   -0.734543   -1.828046
N         2.221704    1.489678   -0.116792
N        -1.365258    2.340744   -0.662462
N        -4.011468    1.385165    0.963752
N        -4.828650    0.092837   -2.023375
N        -3.473255   -2.262875   -0.730713
N         0.061017   -2.662905    0.066538
C         3.849209   -3.446463    2.084619
C         3.613699   -4.341968    3.315982
C         2.383144   -5.211050    2.924522
C         1.770067   -4.505152    1.681722
C         4.633613   -4.232666    0.992849
C         4.921340   -2.173764   -0.518967
C         6.193560   -1.996409   -1.380703
C         6.239536   -3.313233   -2.175102
C         5.780287   -4.364990   -1.149205
C         3.588145   -1.966560   -1.309634
C         3.955212    0.570661   -1.595107
C         4.804145    1.060298   -2.797521
C         5.657273    2.263457   -2.441287
C         5.357526    3.540283   -2.934469
C         6.137618    4.643300   -2.584087
C         7.231040    4.490419   -1.729019
C         7.540033    3.223372   -1.229994
C         6.760196    2.122744   -1.585968
C         2.813015    1.601706   -1.329784
C         1.000651    2.217875    0.195910
C         1.241361    3.764182    0.167056
C         2.409705    4.148233    1.049604
C        -4.551972    1.305765   -1.459419
C         3.680286    4.381784    0.507958
C         4.763245    4.685018    1.334228
C         4.591663    4.760750    2.717674
C         3.327958    4.536381    3.268996
C         2.247744    4.233589    2.439706
C        -0.148989    1.713248   -0.744811
C        -1.973033    2.973739    0.511462
C        -2.623083    4.320748    0.158707
C        -3.206997    5.105060    1.358671
C        -2.171937    5.352337    2.476969
C        -3.805884    6.437851    0.865666
C        -2.777606    1.898462    1.305864
C        -5.087076    1.576430   -0.037368
C        -5.922830    2.884762    0.059088
C        -7.022677    2.867999   -1.024185
C        -6.515880    3.020615    1.483631
C        -7.245761    4.346474    1.755765
C        -5.517309   -1.060574   -1.427971
C        -6.137578   -1.999332   -2.512289
C        -7.227042   -1.219279   -3.283670
C        -5.134022   -2.701140   -3.464095
C        -5.790206   -3.625757   -4.506227
C        -4.637197   -1.720336   -0.322200
C        -2.471155   -2.881541    0.138850
C        -2.720357   -4.413798    0.308732
C        -4.029178   -4.852360    1.006542
C        -4.198940   -6.379264    0.851475
C        -4.088823   -4.445475    2.490496
C        -1.128222   -2.749129   -0.616547
C         0.493509   -1.705424    1.126005
C        -0.369957   -1.539901    2.422318
C         0.249503   -0.473530    3.354284
C        -0.655996   -2.811391    3.238793
C         1.990232   -1.946125    1.446101
H         2.414650   -0.695822   -2.285381
H         2.474461    0.723156    0.493772
H        -2.016622    2.062006   -1.381598
H        -4.205651    0.606196    1.572853
H        -4.382211   -0.030109   -2.917845
H        -3.190584   -2.227447   -1.695251
H         0.809969   -2.774763   -0.610782
H         4.322818   -2.499767    2.322090
H         4.485099   -4.937766    3.568370
H         3.379127   -3.701153    4.166013
H         1.662777   -5.265489    3.739711
H         2.679415   -6.225975    2.676448
H         0.701136   -4.387467    1.725799
H         1.998945   -5.045105    0.763866
H         4.912182   -1.521003    0.349630
H         6.186418   -1.120318   -2.014807
H         7.056012   -1.912951   -0.716961
H         7.226615   -3.530411   -2.579282
H         5.548231   -3.265400   -3.016885
H         6.615573   -4.882365   -0.678133
H         5.128757   -5.125491   -1.576115
H         4.579724    0.496775   -0.707459
H         4.129574    1.297687   -3.616081
H         5.434064    0.242753   -3.143346
H         4.499755    3.669454   -3.578098
H         5.888681    5.620795   -2.976528
H         7.836030    5.345837   -1.457952
H         8.386934    3.090808   -0.569039
H         7.018634    1.146094   -1.195612
H         0.739387    1.944686    1.217290
H         1.405839    4.072771   -0.859202
H         0.347620    4.275937    0.511683
H         3.824529    4.323966   -0.560649
H         5.735422    4.856198    0.892375
H         5.431006    4.995384    3.359781
H         3.182529    4.599946    4.339974
H         1.271137    4.062481    2.877660
H        -1.177129    3.172909    1.214032
H        -1.839032    4.921899   -0.309568
H        -3.372059    4.178794   -0.615947
H        -4.017939    4.516557    1.795972
H        -2.594390    5.976797    3.264245
H        -1.286973    5.867022    2.097909
H        -1.844446    4.428342    2.950771
H        -4.285600    6.984325    1.677841
H        -3.033442    7.086703    0.448930
H        -4.552450    6.285022    0.085837
H        -5.779344    0.787661    0.233782
H        -5.279962    3.739485   -0.136339
H        -7.631577    3.767885   -0.979148
H        -7.695960    2.017277   -0.899292
H        -6.606265    2.822069   -2.027810
H        -7.201644    2.186471    1.666208
H        -5.714847    2.905952    2.214590
H        -6.604107    5.205934    1.563024
H        -8.141213    4.464793    1.147568
H        -7.558929    4.404154    2.797818
H        -6.372422   -0.690712   -0.870088
H        -6.636687   -2.786619   -1.937057
H        -6.797932   -0.471764   -3.950534
H        -7.838984   -1.884072   -3.888007
H        -7.899191   -0.697367   -2.603164
H        -4.521661   -1.964615   -3.994148
H        -4.444710   -3.306828   -2.879313
H        -6.373552   -3.079731   -5.244967
H        -6.451431   -4.352861   -4.032828
H        -5.028132   -4.184540   -5.047449
H        -2.491261   -2.378789    1.096014
H        -2.682376   -4.845658   -0.692882
H        -1.869443   -4.839559    0.846864
H        -4.868182   -4.376252    0.493440
H        -3.383832   -6.923400    1.332711
H        -4.217533   -6.681603   -0.196216
H        -5.128534   -6.720021    1.307732
H        -4.035401   -3.368237    2.619476
H        -3.279050   -4.903811    3.061127
H        -5.025567   -4.772586    2.942204
H         0.496025   -0.721643    0.662676
H        -1.319346   -1.117604    2.093222
H         1.179835   -0.812860    3.806601
H         0.450986    0.460330    2.840346
H        -0.451278   -0.246582    4.154741
H         0.241652   -3.183787    3.729270
H        -1.374806   -2.585065    4.025321
H        -1.078436   -3.619845    2.651695
