160
0 1
O         4.080088   -3.552069    0.062105
O         3.184451    0.208750   -2.430918
O         2.724051    1.074197    2.142354
O        -1.552327    1.188282    1.198153
O        -4.470074    3.973953   -0.846244
O        -4.886650   -0.091278   -2.501193
O        -1.983639   -3.847726    1.000584
O         1.382724   -1.119793    0.195476
O         2.543056   -4.114396    3.970893
N         3.935208   -2.876141    2.701378
N         4.645159   -1.500863   -0.707675
N         3.338664    1.955114   -1.006000
N         0.986038    1.785662    0.877344
N        -2.283011    3.335728    1.009786
N        -4.838893    1.759631   -0.625075
N        -3.853144   -1.689786   -1.296098
N        -1.242856   -2.581382   -0.744033
N         0.854662   -2.751553    1.710058
C         4.359322   -1.836268    1.759193
C         5.841239   -1.642113    2.180564
C         6.304358   -3.085388    2.460613
C         5.060533   -3.763153    3.072323
C         4.292950   -2.364387    0.293486
C         4.807583   -0.049728   -0.650853
C         6.118592    0.159118   -1.455825
C         6.011115   -0.894843   -2.585762
C         5.125852   -2.031302   -2.002726
C         3.665973    0.673854   -1.407004
C         3.365743    2.512420    0.349184
C         3.341601    4.061709    0.329423
C         4.539578    4.614281   -0.414913
C         5.797347    4.657522    0.202011
C         6.920779    5.097801   -0.497480
C         6.802554    5.504556   -1.828504
C         5.553842    5.471674   -2.450924
C         4.432436    5.029385   -1.747624
C         2.308046    1.793195    1.233806
C         0.075624    2.857804    0.496026
C         0.004682    3.251507   -1.018632
C        -0.718820    2.296660   -1.943394
C        -4.515031   -0.489862   -1.400596
C        -0.223859    1.011615   -2.205730
C        -0.876292    0.190373   -3.126747
C        -2.035633    0.619460   -3.774969
C        -2.544780    1.887546   -3.498924
C        -1.884882    2.720506   -2.596298
C        -1.336693    2.368101    0.937582
C        -3.700237    3.019734    1.226532
C        -4.397124    4.036570    2.168058
C        -4.185594    5.556695    1.894205
C        -2.988699    6.125531    2.688281
C        -5.468261    6.342760    2.235211
C        -4.376729    2.953340   -0.162382
C        -4.748902    0.381377   -0.130881
C        -6.050958   -0.058904    0.634084
C        -6.165770    0.649897    1.995525
C        -7.324687    0.116659   -0.228811
C        -8.601598   -0.475757    0.392174
C        -3.674423   -2.606381   -0.164499
C        -4.524963   -3.921725   -0.334064
C        -6.036999   -3.645297   -0.324332
C        -4.089200   -4.738630   -1.579538
C        -4.601549   -6.189656   -1.589413
C        -2.204971   -3.038893    0.099677
C         0.144704   -3.059369   -0.598576
C         0.970340   -3.088152   -1.896112
C         0.539969   -4.129105   -2.962847
C         1.737101   -4.447170   -3.884728
C        -0.676900   -3.705032   -3.810883
C         0.865608   -2.202279    0.473626
C         1.538689   -2.189234    2.876125
C         0.577002   -1.947088    4.081954
C        -0.370313   -3.123320    4.397026
C        -0.225575   -0.649880    3.861703
C         2.706346   -3.142736    3.232915
H         2.644511    2.341100   -1.624105
H         0.491689    0.990254    1.256935
H        -2.086376    4.238480    0.618229
H        -5.171263    1.807327   -1.577498
H        -3.794867   -2.125309   -2.203068
H        -1.419833   -1.760221   -1.298003
H         0.368986   -3.621422    1.836555
H         3.784298   -0.927989    1.883033
H         6.451473   -1.140591    1.432710
H         5.869703   -1.037912    3.088649
H         7.166977   -3.128322    3.123949
H         6.587343   -3.575872    1.530076
H         5.112776   -3.832817    4.158623
H         4.898724   -4.769487    2.690796
H         4.894817    0.293025    0.371069
H         6.964373   -0.054564   -0.800892
H         6.237363    1.178217   -1.821077
H         6.992152   -1.260577   -2.885681
H         5.541421   -0.463008   -3.465138
H         5.677347   -2.950497   -1.813858
H         4.296650   -2.273499   -2.662455
H         4.310248    2.239356    0.809704
H         3.341117    4.398206    1.368015
H         2.421608    4.438945   -0.112488
H         5.898077    4.347140    1.235179
H         7.883264    5.128262   -0.003600
H         7.672944    5.847399   -2.372074
H         5.450861    5.788604   -3.480448
H         3.468221    5.009447   -2.240205
H         0.320561    3.765706    1.054471
H        -0.472326    4.231895   -1.072942
H         1.016471    3.427353   -1.376505
H         0.657982    0.644525   -1.707458
H        -0.455835   -0.775362   -3.360960
H        -2.538340   -0.025859   -4.481976
H        -3.449375    2.229422   -3.981616
H        -2.290048    3.702033   -2.393996
H        -3.709658    2.054856    1.715422
H        -5.463064    3.809241    2.127372
H        -4.087794    3.808292    3.190739
H        -4.005716    5.692770    0.827146
H        -2.809379    7.170942    2.435581
H        -2.062091    5.581855    2.509388
H        -3.175138    6.079785    3.763007
H        -5.332861    7.412896    2.076467
H        -5.758103    6.203703    3.278959
H        -6.304390    6.022930    1.613672
H        -3.886708    0.283074    0.524836
H        -5.938554   -1.122060    0.845173
H        -6.982008    0.236623    2.583972
H        -6.362316    1.714155    1.880508
H        -5.261051    0.532935    2.591531
H        -7.168980   -0.342588   -1.204980
H        -7.479514    1.179938   -0.425296
H        -8.901500    0.035944    1.305394
H        -8.481953   -1.532714    0.633126
H        -9.435806   -0.396993   -0.304298
H        -3.999635   -2.102944    0.742450
H        -4.279464   -4.515735    0.546993
H        -6.603263   -4.566782   -0.441305
H        -6.358263   -3.204785    0.617500
H        -6.341469   -2.977035   -1.129420
H        -4.425235   -4.241915   -2.495483
H        -3.000766   -4.770973   -1.633251
H        -4.281304   -6.725274   -0.695534
H        -4.209632   -6.729189   -2.451015
H        -5.687391   -6.252670   -1.641084
H         0.058202   -4.081582   -0.235989
H         1.056956   -2.090868   -2.326234
H         1.980721   -3.339266   -1.572347
H         0.274228   -5.054079   -2.437203
H         2.582555   -4.841054   -3.321353
H         2.080131   -3.551303   -4.406181
H         1.472742   -5.183856   -4.644200
H        -1.545759   -3.469169   -3.202673
H        -0.448194   -2.828225   -4.418814
H        -0.968972   -4.499426   -4.498729
H         1.918033   -1.224348    2.566083
H         1.227062   -1.799988    4.949831
H        -1.102027   -3.275749    3.603567
H        -0.932268   -2.912647    5.307546
H         0.177260   -4.047722    4.549245
H        -0.880470   -0.451023    4.710947
H         0.428375    0.212096    3.739242
H        -0.855871   -0.713660    2.976269
