63
0 1
N        -3.319457   -0.128550   -0.419878
C        -3.388385   -1.051852    0.732661
C        -2.096157   -1.400658    1.505805
O        -2.211058   -1.596297    2.716502
C        -4.064545   -2.320629    0.138645
C        -3.683020   -2.292098   -1.351272
C        -3.716088   -0.794333   -1.689482
N        -0.887207   -1.555145    0.899356
C        -0.362459   -1.249963   -0.434962
C         0.591700   -2.404182   -0.801441
O         0.182472   -3.376413   -1.424625
N         1.836097   -2.352613   -0.230334
C         2.573230   -1.158755    0.215041
C         3.011826   -0.323251   -1.018169
O         2.818806   -0.714268   -2.161746
C         3.826216   -1.746061    0.958419
C         3.651573   -3.283164    0.895265
C         2.749688   -3.499178   -0.325539
N         3.707340    0.839684   -0.779222
C         3.703607    1.683924    0.409698
C         2.407367    2.467781    0.777652
O         2.349559    3.021771    1.861271
N         1.360792    2.406402   -0.119448
C        -0.006925    2.743428    0.334587
C        -0.483492    1.643993    1.329460
O         0.334928    0.940099    1.910386
C        -0.769822    2.946118   -0.993805
C         0.310825    3.489630   -1.936021
C         1.513599    2.606603   -1.585094
N        -1.813966    1.528013    1.657195
C        -3.032316    1.956909    0.976097
C        -3.414203    1.238539   -0.354992
O        -3.775373    1.905847   -1.319216
H        -4.027815   -0.634304    1.507852
H        -3.757764   -3.228395    0.653027
H        -5.145380   -2.230518    0.256389
H        -2.693491   -2.721411   -1.505090
H        -4.375247   -2.860462   -1.970298
H        -3.040476   -0.508892   -2.494653
H        -4.713405   -0.461815   -1.982767
H        -0.175400   -1.727182    1.590405
H        -1.149864   -1.236216   -1.169249
H         0.119976   -0.274719   -0.448800
H         1.971625   -0.548167    0.883419
H         4.742468   -1.441858    0.454734
H         3.888956   -1.379471    1.981054
H         3.147879   -3.646105    1.791682
H         4.602754   -3.807868    0.818091
H         2.184955   -4.425986   -0.306848
H         3.309879   -3.466610   -1.263916
H         3.995571    1.276633   -1.637852
H         4.525988    2.392692    0.323680
H         3.925022    1.094499    1.296706
H         0.006762    3.673887    0.912415
H        -1.625505    3.606583   -0.906836
H        -1.132021    1.996608   -1.380464
H         0.032968    3.422290   -2.987013
H         0.526812    4.536328   -1.713156
H         1.473633    1.664621   -2.132379
H         2.458662    3.093398   -1.817557
H        -1.936677    0.867252    2.406995
H        -3.005468    3.016583    0.742704
H        -3.848572    1.831364    1.688132
