63
0 1
N         0.768362    3.357107   -0.601874
C         1.320335    2.108551   -0.066442
C         1.132185    2.060290    1.477816
O         0.898843    3.082606    2.113350
C         2.853236    2.187367   -0.408114
C         3.029232    3.522976   -1.168869
C         1.831024    4.369492   -0.722057
N         1.290668    0.854755    2.090549
C         1.365218   -0.456269    1.474502
C         2.792001   -0.834502    1.003506
O         3.780912   -0.402160    1.581453
N         2.872019   -1.686200   -0.059717
C         1.750179   -2.250003   -0.832101
C         0.943289   -3.268557    0.013692
O         1.521691   -4.113752    0.684885
C         2.468373   -2.969547   -2.005802
C         3.816092   -3.402599   -1.398405
C         4.182383   -2.233266   -0.472927
N        -0.418366   -3.212362   -0.061395
C        -1.281728   -2.205990   -0.651306
C        -2.702882   -2.390391   -0.065037
O        -3.038798   -3.471200    0.407083
N        -3.552640   -1.339478   -0.200596
C        -3.186147    0.053173   -0.485589
C        -2.345731    0.657349    0.677571
O        -2.337295    0.140084    1.784790
C        -4.563736    0.798243   -0.561704
C        -5.618574   -0.327756   -0.597835
C        -4.961932   -1.450943    0.211548
N        -1.689771    1.829708    0.412138
C        -1.572993    2.526414   -0.870253
C        -0.529827    3.672604   -0.879536
O        -0.881744    4.794167   -1.225329
H         0.855117    1.254525   -0.553039
H         3.167181    1.329095   -0.997192
H         3.445669    2.166821    0.502766
H         2.980945    3.359567   -2.246288
H         3.983981    3.999642   -0.952597
H         2.001110    4.845577    0.245154
H         1.533318    5.134181   -1.431356
H         1.267766    0.902481    3.093767
H         1.054651   -1.195405    2.211492
H         0.631485   -0.518181    0.680955
H         1.121576   -1.451374   -1.222161
H         2.622182   -2.257150   -2.818395
H         1.884928   -3.797982   -2.404136
H         3.685601   -4.311954   -0.817055
H         4.576624   -3.587532   -2.155561
H         4.760051   -1.461560   -0.988293
H         4.754421   -2.533948    0.401340
H        -0.917322   -3.925666    0.451489
H        -1.358814   -2.309215   -1.740703
H        -0.908732   -1.205506   -0.458501
H        -2.666280    0.117656   -1.441430
H        -4.616991    1.462000   -1.421774
H        -4.703431    1.413587    0.326529
H        -5.790844   -0.660467   -1.622399
H        -6.576677   -0.013510   -0.187093
H        -5.338782   -2.443880   -0.014137
H        -5.055112   -1.291652    1.288580
H        -1.345158    2.306070    1.230001
H        -2.508792    2.997225   -1.166832
H        -1.300417    1.814086   -1.652679
