63
0 1
N         2.317327   -2.148248   -0.537336
C         3.617348   -1.967177    0.164021
C         3.644079   -0.553569    0.831933
O         4.349025    0.359205    0.413459
C         4.639394   -2.097478   -0.970324
C         3.906772   -1.486194   -2.181522
C         2.444020   -1.933543   -2.002942
N         2.805361   -0.446137    1.900390
C         2.400553    0.852797    2.431288
C         1.172510    1.354234    1.636278
O         0.076336    0.803269    1.790089
N         1.356829    2.344906    0.731879
C         0.248690    2.707350   -0.171562
C        -0.268017    1.471295   -0.941112
O         0.525018    0.709262   -1.487890
C         0.895079    3.718933   -1.148791
C         2.029111    4.346454   -0.319728
C         2.573388    3.151823    0.476833
N        -1.615672    1.352176   -1.088150
C        -2.661294    2.029588   -0.313303
C        -4.031676    1.327673   -0.439889
O        -4.978055    1.894809   -0.975504
N        -4.151489    0.084535    0.108160
C        -3.123545   -0.730143    0.756002
C        -2.267371   -1.486953   -0.301262
O        -2.584015   -1.547760   -1.487802
C        -3.972173   -1.713964    1.598280
C        -5.175854   -1.988477    0.675095
C        -5.445814   -0.624516    0.011611
N        -1.159438   -2.068316    0.211143
C        -0.111857   -2.624313   -0.636856
C         1.203166   -2.489741    0.138350
O         1.194953   -2.679690    1.367270
H         3.720447   -2.736088    0.928485
H         5.570722   -1.587782   -0.740208
H         4.859238   -3.152759   -1.140264
H         4.316551   -1.807754   -3.137530
H         3.971431   -0.401447   -2.136709
H         1.740733   -1.179091   -2.339911
H         2.242960   -2.869616   -2.528452
H         2.174392   -1.221677    2.064283
H         2.093870    0.724753    3.467113
H         3.254234    1.519445    2.405504
H        -0.537813    3.187965    0.407909
H         0.173170    4.442192   -1.523596
H         1.308574    3.182421   -2.002292
H         1.634549    5.106089    0.357972
H         2.795681    4.819102   -0.932234
H         3.300661    2.572632   -0.089583
H         3.042636    3.459566    1.408620
H        -1.903007    0.591789   -1.684505
H        -2.824138    3.047715   -0.664073
H        -2.369805    2.072519    0.736712
H        -2.465707   -0.124630    1.377284
H        -3.425239   -2.612135    1.879071
H        -4.290620   -1.219213    2.517381
H        -4.908441   -2.728696   -0.078177
H        -6.043850   -2.367004    1.212174
H        -5.757799   -0.708945   -1.027460
H        -6.212802   -0.050023    0.533778
H        -0.890254   -1.903759    1.166922
H        -0.116999   -2.100777   -1.586013
H        -0.288943   -3.684431   -0.846174
