68
0 1
C         0.715366    2.777485    0.425439
N         0.304694    1.427394    0.066432
C        -0.166291    0.523056    0.976022
C        -0.745841   -0.756860    0.316061
N         0.151484   -1.335158   -0.702802
C         1.470906   -1.744782   -0.655555
C         2.310562   -1.409879    0.600095
C         2.509417   -2.686171    1.471193
C         3.837685   -3.276377    0.966236
C         4.687605   -2.029352    0.704697
N         3.696038   -1.036860    0.245351
C         4.120193    0.115466   -0.349223
C         3.048753    1.022956   -0.991593
N         3.120209    2.350527   -0.368490
C         2.177844    3.214561    0.122521
C        -0.307063    3.810711   -0.151776
C        -1.708437    3.435562    0.232981
C        -2.333567    3.735341    1.421509
N        -3.544036    3.068073    1.501269
C        -3.723539    2.307740    0.363869
C        -4.756890    1.440645    0.001965
C        -4.650907    0.782662   -1.221167
C        -3.546748    1.000091   -2.071144
C        -2.522741    1.870014   -1.708488
C        -2.584650    2.530905   -0.468630
C        -1.257653   -1.779467    1.357185
C        -2.067046   -2.866978    0.684028
C        -1.507193   -4.111626    0.370789
C        -2.248973   -5.080721   -0.308139
C        -3.565496   -4.816736   -0.687853
C        -4.135302   -3.578167   -0.382229
C        -3.392472   -2.613777    0.297564
C         3.290285    1.091334   -2.511344
O        -0.142592    0.692059    2.187747
O         1.961612   -2.355365   -1.595399
O         5.308996    0.415009   -0.427517
O         2.483544    4.365393    0.419283
H         0.647627    2.816187    1.511803
H         0.085373    1.251025   -0.897617
H        -1.613543   -0.416183   -0.251879
H        -0.315858   -1.724888   -1.505314
H         1.859883   -0.628340    1.200236
H         2.588184   -2.391335    2.518223
H         1.676206   -3.381090    1.393192
H         4.296271   -3.955333    1.683605
H         3.676176   -3.820659    0.037338
H         5.452638   -2.168912   -0.055131
H         5.189648   -1.676446    1.609806
H         2.064912    0.635973   -0.817317
H         4.033310    2.777767   -0.414730
H        -0.201284    3.856859   -1.238708
H        -0.031492    4.794646    0.219374
H        -1.998836    4.360867    2.231331
H        -4.180432    3.119089    2.272427
H        -5.609917    1.282411    0.648900
H        -5.433504    0.102290   -1.528189
H        -3.502418    0.488330   -3.023196
H        -1.695742    2.044434   -2.385798
H        -1.865887   -1.237242    2.079882
H        -0.420433   -2.192204    1.917138
H        -0.487317   -4.328929    0.660335
H        -1.798067   -6.037144   -0.538712
H        -4.141591   -5.566759   -1.213603
H        -5.157039   -3.364942   -0.669205
H        -3.840937   -1.654554    0.524103
H         4.288611    1.464797   -2.729165
H         2.561927    1.750351   -2.982687
H         3.195483    0.099510   -2.951755
