158
0 1
S         7.354070   -4.941240   -0.739035
O         3.797911   -1.820129   -1.885159
O         5.695552    3.312096   -0.336994
O         1.358285    5.286029    0.131326
O        -1.137244    2.799755   -0.137989
O        -5.172470    4.434591    0.831867
O        -3.778351    0.065556   -1.261379
O        -2.368433   -3.186005    1.550223
O         0.697069   -0.771593   -0.475912
O         3.224197   -0.176146    2.094193
N         3.193157   -2.184000    1.026741
N         4.635962    0.072963   -0.977472
N         3.687181    2.445140    0.335240
N         1.331560    3.478323   -1.207896
N        -1.851981    4.924825   -0.453813
N        -3.869914    2.745562    0.031255
N        -4.492142   -0.448663    0.854854
N        -2.230484   -2.075035   -0.442445
N         0.422196   -2.262540    1.224075
C         4.513121   -2.024571    0.407428
C         5.138957   -3.405781    0.140757
C         6.566496   -3.305620   -0.409724
C         6.446341   -5.450474   -2.256548
C         4.311543   -1.252328   -0.924911
C         5.513327    0.877791   -0.114002
C         7.013456    0.765802   -0.488718
C         7.382625    0.643964   -1.988302
C         6.970503    1.855645   -2.847269
C         8.898767    0.384940   -2.120522
C         4.989475    2.348698   -0.066258
C         3.076407    3.729082    0.662249
C         2.708948    3.833956    2.181962
C         3.955761    3.611630    3.058786
C         1.532565    2.903742    2.576035
C         0.899580    3.248182    3.935316
C         1.857680    4.196032   -0.176107
C         1.656713    2.133417   -1.743317
C         0.430690    1.752831   -2.593716
C        -0.182352    3.100891   -3.004870
C         0.087692    4.020725   -1.793034
C        -1.014380    3.892277   -0.718513
C        -1.643871    6.344210   -0.826738
C        -1.904548    7.086803    0.488648
C        -3.070208    6.294766    1.100347
C        -2.766917    4.829958    0.731416
C        -4.068280    3.999056    0.516446
C        -4.959624    1.781918   -0.040866
C        -5.941892    2.046813   -1.222209
C        -7.022421    0.988745   -1.274800
C        -8.041353    0.966819   -0.309792
C        -8.992856   -0.053778   -0.296549
C        -8.947141   -1.068466   -1.256081
C        -7.947193   -1.048977   -2.230224
C        -6.991787   -0.031438   -2.235439
C        -4.348492    0.378743   -0.211557
C        -4.312396   -1.917140    0.883525
C        -5.309375   -2.624685   -0.083838
C        -5.271763   -4.130046    0.059611
C        -4.608274   -4.928110   -0.879465
C        -4.546174   -6.313776   -0.724081
C        -5.150007   -6.923157    0.376176
C        -5.822025   -6.137961    1.316085
C        -5.882287   -4.754530    1.156316
C        -2.853984   -2.430487    0.703251
C        -0.907251   -2.595307   -0.810586
C        -0.667738   -2.545710   -2.336424
C         0.669098   -3.233310   -2.681483
C        -1.823894   -3.189157   -3.126147
C         0.155764   -1.775039   -0.029740
C         1.150902   -1.420518    2.180331
C         1.031759   -2.014910    3.619264
C         1.499025   -0.997394    4.678382
C         1.734952   -3.388215    3.764194
C         1.360791   -4.152833    5.045248
C         2.612905   -1.189998    1.745657
H         2.590272   -2.891357    0.644195
H         4.440645    0.463025   -1.885602
H         3.263448    1.612641    0.710974
H        -2.911796    2.444570   -0.117410
H        -4.989085   -0.073256    1.641532
H        -2.644608   -1.328455   -0.993743
H        -0.269864   -2.898953    1.597525
H         5.129035   -1.478597    1.114766
H         5.145098   -3.976409    1.069612
H         4.507727   -3.938769   -0.570009
H         6.604540   -2.716963   -1.326690
H         7.231145   -2.827412    0.311779
H         6.895379   -6.388089   -2.576421
H         6.564871   -4.713287   -3.048694
H         5.388381   -5.616851   -2.066816
H         5.386852    0.511406    0.902096
H         7.399719   -0.123464    0.015757
H         7.532869    1.617171   -0.048504
H         6.871162   -0.238893   -2.387054
H         5.895420    2.026295   -2.856583
H         7.279840    1.710715   -3.883037
H         7.423959    2.775387   -2.483249
H         9.208887   -0.500857   -1.564918
H         9.480507    1.227934   -1.743823
H         9.184224    0.232473   -3.161476
H         3.843952    4.474648    0.457524
H         2.376624    4.864930    2.311344
H         4.289759    2.575138    3.033801
H         3.751685    3.858613    4.099292
H         4.788594    4.236370    2.736869
H         0.750888    2.951371    1.817554
H         1.874636    1.869081    2.597439
H         0.044127    2.603426    4.140381
H         1.596245    3.126991    4.764262
H         0.540572    4.278460    3.957797
H         1.805521    1.405391   -0.959908
H         2.566422    2.189083   -2.344891
H        -0.265128    1.186891   -1.983991
H         0.707071    1.133546   -3.445982
H        -1.242104    3.034538   -3.247950
H         0.325040    3.514600   -3.878057
H         0.244385    5.044600   -2.110207
H        -0.639121    6.509616   -1.191786
H        -2.356883    6.634989   -1.602574
H        -2.134849    8.140767    0.337736
H        -1.011489    7.021211    1.110916
H        -3.162825    6.423563    2.176777
H        -4.022029    6.594918    0.665172
H        -2.205655    4.329474    1.524594
H        -5.536182    1.846331    0.884727
H        -5.365342    2.065462   -2.144787
H        -6.364408    3.038192   -1.071442
H        -8.093632    1.757337    0.429032
H        -9.771972   -0.052478    0.454959
H        -9.685750   -1.859206   -1.248645
H        -7.906995   -1.826712   -2.981882
H        -6.208789   -0.032950   -2.981553
H        -4.558596   -2.210671    1.900180
H        -6.305634   -2.242003    0.140604
H        -5.091636   -2.326575   -1.105840
H        -4.144506   -4.464028   -1.737836
H        -4.030210   -6.913737   -1.462629
H        -5.103106   -7.997266    0.498573
H        -6.300961   -6.602238    2.168401
H        -6.410886   -4.155079    1.887971
H        -0.873309   -3.634094   -0.477640
H        -0.591318   -1.494576   -2.625076
H         0.844532   -3.204286   -3.756327
H         0.657864   -4.285420   -2.387577
H         1.523220   -2.754141   -2.213179
H        -1.959169   -4.236480   -2.851835
H        -1.611078   -3.160075   -4.194421
H        -2.773451   -2.680429   -2.974947
H         0.707498   -0.423218    2.184915
H        -0.043250   -2.172318    3.768104
H         0.988076   -0.042701    4.564819
H         1.288494   -1.357324    5.683225
H         2.566717   -0.801104    4.609236
H         1.488877   -4.017959    2.906526
H         2.817589   -3.247557    3.725454
H         1.677979   -3.633230    5.948027
H         1.831722   -5.135322    5.059858
H         0.283398   -4.308088    5.116475
