158
0 1
S        -4.478190    5.296409   -2.997504
O        -4.972144    1.479184    1.373890
O        -3.817556   -3.228292   -0.424094
O         0.363008   -2.393208    0.672200
O         2.231865   -2.357038   -2.188579
O        -1.197883    0.565989   -2.216837
O         3.327078    3.017883   -1.517102
O         2.762159    1.484589    2.549434
O        -1.609230    0.368363    2.754240
O         0.312691    2.327735    0.289194
N        -1.882139    2.615986   -0.128813
N        -3.554863    0.273222    0.045635
N        -2.527972   -2.153664    1.113248
N        -0.314386   -4.208997   -0.476629
N         0.018813   -2.177743   -2.692835
N         0.992754    1.116938   -2.219665
N         3.390192    1.301772   -0.044249
N         1.479601   -0.412742    2.504531
N        -0.169723    2.118135    3.002772
C        -3.302887    2.735726    0.183873
C        -4.065594    3.274723   -1.057106
C        -3.638060    4.686202   -1.473403
C        -6.194360    5.534428   -2.377977
C        -4.002384    1.425216    0.626797
C        -4.394649   -0.924396    0.079956
C        -5.356455   -0.993863   -1.131353
C        -6.649040   -1.814050   -0.883784
C        -7.295189   -2.215491   -2.223829
C        -7.650300   -1.037129   -0.003944
C        -3.547014   -2.206348    0.212251
C        -1.741275   -3.355837    1.389905
C        -1.379375   -3.510359    2.888139
C        -0.669501   -4.859237    3.126997
C        -2.600267   -3.301947    3.819841
C        -3.800386   -4.234940    3.584018
C        -0.471134   -3.294692    0.512695
C        -1.083471   -5.454527   -0.705892
C        -0.069252   -6.356564   -1.429410
C         0.779296   -5.369703   -2.254643
C         0.882309   -4.124400   -1.340679
C         1.082571   -2.795853   -2.103520
C        -1.348437   -2.713870   -2.914089
C        -1.982830   -1.772640   -3.963404
C        -0.786835   -1.037381   -4.599821
C         0.242657   -0.928078   -3.457291
C        -0.029396    0.307474   -2.566654
C         2.454468    0.900465   -2.315049
C         3.064935    1.237105   -3.698992
C         4.536102    0.863442   -3.709832
C         5.533506    1.836741   -3.565054
C         6.880243    1.473623   -3.502164
C         7.251679    0.129980   -3.576795
C         6.265289   -0.848941   -3.717942
C         4.920128   -0.484826   -3.784932
C         3.092236    1.844033   -1.253602
C         2.870432    0.083627    0.558470
C         3.923736   -1.074962    0.578152
C         5.267569   -0.651267    1.116942
C         6.206625   -0.047653    0.266875
C         7.433449    0.393666    0.761770
C         7.745012    0.234830    2.114028
C         6.822479   -0.374715    2.966535
C         5.594704   -0.813581    2.469016
C         2.368147    0.466945    1.975617
C         0.599166   -0.123823    3.655503
C         1.294842    0.313242    4.968969
C         0.234602    0.447554    6.081705
C         2.394911   -0.688878    5.363112
C        -0.515533    0.809971    3.116910
C        -0.973190    3.034467    2.191136
C        -0.531098    4.509414    2.459745
C        -1.574380    5.502670    1.912016
C         0.898567    4.845939    1.955081
C         1.480148    6.131161    2.569206
C        -0.811638    2.620990    0.707680
H        -1.658383    2.206339   -1.030082
H        -2.798304    0.299949   -0.619780
H        -2.271756   -1.284203    1.562424
H         0.713071    1.820728   -1.542137
H         3.735955    1.970017    0.628142
H         1.109191   -1.122982    1.883805
H         0.811407    2.330353    3.087883
H        -3.441809    3.434842    1.001813
H        -5.127279    3.259419   -0.814869
H        -3.926319    2.589163   -1.895621
H        -3.800638    5.405059   -0.668147
H        -2.578336    4.718110   -1.725395
H        -6.213532    6.214170   -1.527389
H        -6.750948    5.983875   -3.197279
H        -6.671038    4.594216   -2.109397
H        -4.976835   -0.838197    0.997405
H        -4.813824   -1.399700   -1.985788
H        -5.634821    0.028135   -1.395626
H        -6.369880   -2.734379   -0.365894
H        -7.549834   -1.338540   -2.823084
H        -6.624659   -2.836893   -2.817828
H        -8.215805   -2.779489   -2.069873
H        -8.511514   -1.654930    0.252249
H        -8.026089   -0.154018   -0.524483
H        -7.210000   -0.687689    0.928815
H        -2.369268   -4.186272    1.091230
H        -0.660976   -2.728107    3.130405
H         0.245008   -4.947355    2.540959
H        -1.302637   -5.710765    2.877777
H        -0.386950   -4.964374    4.173801
H        -2.250589   -3.420746    4.849118
H        -2.928828   -2.265500    3.742615
H        -4.588876   -4.026878    4.306475
H        -4.235667   -4.107767    2.594010
H        -3.537923   -5.286906    3.695062
H        -1.415420   -5.890428    0.231084
H        -1.970695   -5.253014   -1.306483
H         0.556696   -6.869859   -0.697577
H        -0.552984   -7.119303   -2.037522
H         0.284693   -5.133749   -3.195836
H         1.765850   -5.752211   -2.506236
H         1.770658   -4.192243   -0.713837
H        -1.294217   -3.732083   -3.295101
H        -1.927096   -2.738879   -1.999433
H        -2.642982   -1.060665   -3.479149
H        -2.569386   -2.327374   -4.694357
H        -0.349264   -1.631296   -5.403863
H        -1.057426   -0.069527   -5.016532
H         1.259369   -0.929423   -3.827359
H         2.668435   -0.139041   -2.094887
H         2.922058    2.296158   -3.899121
H         2.529447    0.685946   -4.472727
H         5.251103    2.876071   -3.478952
H         7.635853    2.240532   -3.389862
H         8.295229   -0.151829   -3.522889
H         6.541034   -1.894269   -3.772043
H         4.164652   -1.254171   -3.874437
H         2.011380   -0.269387   -0.002624
H         4.019079   -1.433604   -0.444850
H         3.507380   -1.903950    1.151087
H         5.978362    0.075225   -0.781714
H         8.143455    0.856156    0.088265
H         8.697602    0.576420    2.498101
H         7.057153   -0.510177    4.014641
H         4.889808   -1.296775    3.133262
H         0.094406   -1.061869    3.871525
H         1.770321    1.282120    4.828576
H        -0.528425    1.184291    5.834892
H        -0.272293   -0.500405    6.271866
H         0.698066    0.761224    7.016292
H         3.192172   -0.717006    4.625918
H         1.999495   -1.700911    5.470520
H         2.841564   -0.410605    6.317304
H        -2.002363    2.916018    2.517444
H        -0.532313    4.595904    3.552050
H        -1.621869    5.475077    0.824247
H        -2.572435    5.297955    2.299436
H        -1.331314    6.524123    2.195354
H         0.892528    4.928849    0.867273
H         1.587140    4.028386    2.164556
H         0.909080    7.021080    2.306941
H         1.515950    6.074814    3.658476
H         2.499091    6.292372    2.219644
