158
0 1
S        -0.170758    3.880736   -3.206297
O        -0.341036    1.287336    1.852413
O        -2.482263    1.072112   -2.192501
O        -6.049098    1.177996    1.219190
O        -2.545221   -1.279831    1.235931
O        -2.961111   -2.568855   -1.941629
O         0.726750   -3.972242   -2.180188
O         2.877898   -0.381337   -3.070035
O         3.560045    1.191327    1.866739
O         1.806060    5.081208   -0.197915
N         1.120635    3.144397    0.826260
N        -2.267924    1.790074    0.825096
N        -4.085668   -0.062120   -1.125552
N        -5.205607   -0.677650    2.179285
N        -3.150203   -3.395410    0.729373
N        -0.870437   -1.823955   -1.553350
N         2.660379   -2.868203   -1.845807
N         4.020981    0.589956   -1.381085
N         4.094993    2.992810    0.584028
C        -0.051637    2.796367    0.019453
C         0.367333    1.973833   -1.230260
C         1.042080    2.757350   -2.363194
C         0.911032    5.326662   -3.557646
C        -0.914920    1.908098    0.951196
C        -3.299770    2.148212   -0.183889
C        -3.245166    3.541650   -0.834830
C        -3.670673    4.732152    0.063209
C        -2.733141    5.012969    1.255658
C        -3.814436    5.997576   -0.809210
C        -3.284379    1.032204   -1.254132
C        -5.232383   -0.511867   -0.326701
C        -6.573170   -0.421234   -1.157152
C        -6.615687   -1.559253   -2.198784
C        -6.784454    0.969539   -1.802469
C        -8.209931    1.202175   -2.332644
C        -5.476757    0.098149    1.073528
C        -6.056286   -0.541452    3.376936
C        -6.467687   -2.015570    3.715680
C        -5.688278   -2.904708    2.700195
C        -4.513293   -1.976784    2.336282
C        -3.357170   -2.202601    1.337539
C        -4.074409   -4.538478    0.563339
C        -3.452581   -5.351699   -0.585343
C        -1.947498   -5.056602   -0.464757
C        -1.893006   -3.570680   -0.048749
C        -1.926485   -2.623876   -1.264154
C         0.531417   -1.792675   -1.120082
C         0.758813   -1.545126    0.416048
C         1.501640   -2.549433    1.288666
C         2.236857   -2.031383    2.371304
C         2.862716   -2.874293    3.289540
C         2.777292   -4.260619    3.145061
C         2.076750   -4.787764    2.061277
C         1.446207   -3.944351    1.143521
C         1.301404   -2.979602   -1.746696
C         3.599836   -1.892626   -1.306039
C         5.039215   -2.443914   -1.544137
C         5.254060   -3.837616   -0.988552
C         5.505107   -4.917346   -1.845463
C         5.696936   -6.204199   -1.337220
C         5.644040   -6.425294    0.038640
C         5.393624   -5.354657    0.900782
C         5.197635   -4.072667    0.392293
C         3.459280   -0.506836   -2.001624
C         4.809146    0.712940   -0.147244
C         6.322642    1.006816   -0.412181
C         7.103935    1.021180    0.916255
C         6.639349    2.251631   -1.265767
C         4.094780    1.658098    0.864678
C         3.319461    3.973925    1.372444
C         4.094718    5.289369    1.586279
C         5.461211    5.033336    2.253988
C         3.246597    6.325449    2.378462
C         2.734086    5.873692    3.758043
C         1.978834    4.159253    0.598400
H         1.344209    2.435545    1.509495
H        -2.578006    1.044243    1.430947
H        -3.803661   -0.777431   -1.783715
H        -1.074109   -1.230693   -2.342020
H         3.065374   -3.695315   -2.249953
H         3.878288    1.426992   -1.921353
H         4.448139    3.318235   -0.296984
H        -0.554477    3.705111   -0.285650
H        -0.504829    1.466086   -1.631369
H         1.062136    1.205810   -0.891415
H         1.432132    2.051387   -3.096373
H         1.863648    3.369666   -2.002946
H         0.276734    6.076296   -4.026766
H         1.712816    5.070169   -4.248989
H         1.318938    5.724791   -2.632907
H        -4.229235    2.110668    0.370180
H        -2.290306    3.734726   -1.315092
H        -3.954663    3.491704   -1.664269
H        -4.660004    4.494553    0.472406
H        -2.647249    4.161805    1.925736
H        -1.728876    5.280144    0.924635
H        -3.106259    5.853162    1.842865
H        -2.860025    6.274867   -1.260016
H        -4.527476    5.851257   -1.621305
H        -4.157996    6.848788   -0.220593
H        -5.049670   -1.574172   -0.191283
H        -7.388078   -0.594896   -0.446022
H        -5.823892   -1.463316   -2.940773
H        -7.562333   -1.568938   -2.735271
H        -6.503449   -2.538837   -1.732456
H        -6.068267    1.099474   -2.616329
H        -6.563341    1.736988   -1.064755
H        -8.310451    2.211195   -2.732199
H        -8.481228    0.515212   -3.133660
H        -8.952590    1.093357   -1.540754
H        -6.893940    0.107673    3.148691
H        -5.499223   -0.083719    4.196086
H        -7.542951   -2.161736    3.631183
H        -6.191502   -2.266511    4.739321
H        -5.378179   -3.853429    3.133509
H        -6.303647   -3.115253    1.826884
H        -3.929393   -1.868053    3.260278
H        -4.123348   -5.126091    1.482794
H        -5.078937   -4.203058    0.321555
H        -3.688313   -6.412180   -0.506482
H        -3.827322   -4.988918   -1.538911
H        -1.390613   -5.238986   -1.378112
H        -1.496217   -5.662196    0.323418
H        -1.055121   -3.368204    0.603517
H         0.910704   -0.910627   -1.622527
H        -0.216836   -1.351216    0.855749
H         1.271788   -0.593125    0.519010
H         2.315362   -0.960719    2.495305
H         3.413287   -2.444584    4.116680
H         3.255851   -4.917375    3.860134
H         2.022155   -5.859103    1.918062
H         0.930146   -4.395013    0.312303
H         3.441338   -1.786361   -0.234000
H         5.754005   -1.758824   -1.094678
H         5.236448   -2.427153   -2.617098
H         5.558649   -4.751263   -2.914558
H         5.888448   -7.025693   -2.015011
H         5.794071   -7.420331    0.436403
H         5.344201   -5.516448    1.968485
H         4.985935   -3.260261    1.074551
H         4.764220   -0.242965    0.361676
H         6.669101    0.148186   -0.994531
H         8.174409    1.106854    0.733865
H         6.812534    1.859655    1.547526
H         6.941026    0.109320    1.490485
H         6.506770    3.184323   -0.719903
H         6.048172    2.296880   -2.180321
H         7.682969    2.227730   -1.576648
H         3.138831    3.494036    2.330051
H         4.270237    5.731245    0.600415
H         5.983241    5.973312    2.431580
H         5.361880    4.528364    3.214704
H         6.110350    4.415458    1.636634
H         2.400581    6.626246    1.763029
H         3.858839    7.222309    2.502351
H         3.536856    5.550870    4.420621
H         2.017681    5.055821    3.686603
H         2.220402    6.695184    4.256562
