42
0 1
N        -2.396346    0.474333   -0.361261
C        -2.315811   -0.311748    0.882981
C        -3.540337   -1.262434    0.779079
C        -3.696442   -1.479608   -0.736341
C        -3.378200   -0.095218   -1.319625
C        -1.017099   -1.125583    1.084909
O        -0.684773   -1.474938    2.215444
N        -0.334866   -1.459829   -0.044572
C         0.833553   -2.333460   -0.037109
C         2.116203   -1.759912   -0.683737
O         2.693919   -2.394181   -1.560565
N         2.608414   -0.580005   -0.207838
C         2.021033    0.304854    0.796892
C         3.228625    1.182775    1.214594
C         4.007337    1.345597   -0.105689
C         3.843984   -0.019963   -0.798254
C         0.906319    1.174945    0.164649
O         0.874530    1.446833   -1.027297
N        -0.027315    1.643822    1.045582
C        -1.148968    2.447251    0.575177
C        -2.046209    1.799967   -0.511733
O        -2.456849    2.467180   -1.447731
H        -2.408528    0.319153    1.764799
H        -4.418479   -0.755583    1.182370
H        -3.401661   -2.178050    1.349854
H        -2.984832   -2.226471   -1.089933
H        -4.690345   -1.824779   -1.015719
H        -4.262410    0.543570   -1.365403
H        -2.959992   -0.125785   -2.324073
H        -0.605738   -1.032143   -0.912170
H         1.019226   -2.604871    1.000646
H         0.620037   -3.249108   -0.585470
H         1.631501   -0.260126    1.642891
H         3.822011    0.642454    1.953937
H         2.926306    2.128250    1.662793
H         3.559322    2.131221   -0.711225
H         5.052337    1.606215    0.053371
H         3.746962    0.059256   -1.878822
H         4.679011   -0.693457   -0.596662
H        -0.015996    1.324899    1.997106
H        -0.795784    3.376733    0.135386
H        -1.760697    2.706440    1.439377
