42
0 1
N        -2.901677    0.253147    0.308289
C        -2.133766   -0.982400    0.584442
C        -2.270326   -1.735777   -0.752272
C        -3.779949   -1.529723   -1.052310
C        -4.155889   -0.189838   -0.338187
C        -0.865443   -0.844966    1.447613
O        -0.947703   -0.240290    2.514269
N         0.268941   -1.546295    1.144309
C         0.854085   -2.019017   -0.112198
C         2.349574   -1.632839   -0.236184
O         3.178087   -2.484303   -0.532225
N         2.703484   -0.342193    0.053944
C         1.825135    0.842833    0.140607
C         2.820658    2.039596    0.096502
C         4.139928    1.435543    0.608183
C         4.130137    0.033905   -0.009549
C         0.874529    0.926473   -1.068648
O         1.240653    0.566961   -2.181066
N        -0.375830    1.448455   -0.874505
C        -1.063144    1.977373    0.309105
C        -2.552051    1.578654    0.217560
O        -3.384160    2.437156   -0.056580
H        -2.754439   -1.542881    1.298585
H        -1.993964   -2.786810   -0.689677
H        -1.665276   -1.266357   -1.525368
H        -3.978745   -1.488770   -2.121573
H        -4.365260   -2.357133   -0.651788
H        -4.495952    0.585747   -1.015783
H        -4.940922   -0.337133    0.405518
H         0.907777   -1.530116    1.924088
H         0.311282   -1.622190   -0.959822
H         0.824742   -3.105549   -0.178182
H         1.296173    0.846359    1.089561
H         2.942700    2.378825   -0.932039
H         2.461731    2.881865    0.685298
H         4.137099    1.370653    1.697860
H         5.011855    2.018137    0.314779
H         4.733671   -0.692014    0.529323
H         4.474562    0.041318   -1.046707
H        -0.863854    1.582143   -1.746348
H        -0.596972    1.630419    1.220246
H        -1.046512    3.066605    0.314596
