42
0 1
N        -2.739570   -0.384423   -0.290017
C        -1.831839    0.761351   -0.414836
C        -2.781429    1.971951   -0.709026
C        -4.153604    1.330938   -1.007323
C        -4.137220    0.055378   -0.156674
C        -1.084290    1.013930    0.918385
O        -1.599601    0.711769    1.984229
N         0.139824    1.624525    0.859852
C         0.895099    2.171018   -0.264734
C         2.394315    1.775698   -0.217947
O         3.254401    2.632238   -0.044565
N         2.702776    0.458531   -0.381634
C         1.781409   -0.657014   -0.602149
C         2.712765   -1.749678   -1.188980
C         4.037643   -1.511252   -0.436833
C         4.112731    0.020440   -0.299947
C         1.164390   -1.134602    0.738337
O         1.769454   -0.996320    1.792006
N        -0.059950   -1.746501    0.690954
C        -0.923011   -2.088812   -0.436579
C        -2.407069   -1.705522   -0.194688
O        -3.234524   -2.581425    0.029367
H        -1.152941    0.598226   -1.250104
H        -2.406551    2.588785   -1.523836
H        -2.851136    2.609411    0.171494
H        -4.235755    1.070766   -2.063752
H        -4.983749    1.992495   -0.764460
H        -4.805926   -0.724699   -0.506546
H        -4.370667    0.258879    0.890926
H         0.549121    1.761491    1.770508
H         0.442828    1.858706   -1.202027
H         0.878559    3.260804   -0.251197
H         1.019579   -0.372711   -1.322955
H         2.836213   -1.578960   -2.259697
H         2.316204   -2.755725   -1.060125
H         3.998079   -1.974778    0.546455
H         4.896657   -1.921854   -0.964650
H         4.555583    0.343078    0.639829
H         4.684485    0.485389   -1.105270
H        -0.395179   -2.023399    1.599996
H        -0.927290   -3.166042   -0.604117
H        -0.546872   -1.627824   -1.344876
