56
0 1
N         0.631311   -1.592200    0.561711
C         1.915196   -2.027534   -0.022847
C         2.667874   -2.653953    1.177679
C         2.088159   -1.924178    2.401275
C         0.605755   -1.751337    2.031635
C         2.788054   -0.987583   -0.774860
O         3.658090   -1.447706   -1.510229
N         2.657678    0.364069   -0.616857
C         1.792436    1.158710    0.263296
C         2.565698    2.504022    0.356461
C         3.158355    2.657020   -1.055029
C         3.551360    1.221819   -1.434493
C         0.397167    1.393364   -0.370863
O         0.237328    1.396611   -1.581797
N        -0.648819    1.608114    0.496707
C        -1.976746    1.936922   -0.070981
C        -2.798913    2.369340    1.167053
C        -1.737427    2.948256    2.115686
C        -0.557850    1.980784    1.924927
C        -2.738919    0.872650   -0.893167
O        -3.500255    1.277460   -1.765790
N        -2.695287   -0.451888   -0.556069
C        -1.826551   -1.158915    0.387987
C        -2.623153   -2.465005    0.646389
C        -3.236157   -2.774762   -0.733098
C        -3.555073   -1.386604   -1.320044
C        -0.461239   -1.489307   -0.269824
O        -0.369807   -1.658994   -1.476596
H         1.720922   -2.772650   -0.789889
H         3.746694   -2.563993    1.080637
H         2.437596   -3.719135    1.233991
H         2.217414   -2.469957    3.334893
H         2.567456   -0.952261    2.529796
H         0.029872   -2.635006    2.321840
H         0.152869   -0.896060    2.528705
H         1.703510    0.694934    1.238576
H         1.934276    3.342745    0.647395
H         3.356128    2.412559    1.103942
H         4.006713    3.339121   -1.081823
H         2.403130    3.037805   -1.739411
H         4.590947    0.997248   -1.190353
H         3.415075    1.006640   -2.491716
H        -1.867763    2.769105   -0.765790
H        -3.284834    1.504971    1.624832
H        -3.583180    3.072122    0.896686
H        -2.064611    3.010373    3.152979
H        -1.449865    3.952402    1.798788
H        -0.675330    1.107809    2.574423
H         0.398255    2.435143    2.168104
H        -1.703976   -0.591980    1.304090
H        -3.401554   -2.265618    1.385013
H        -2.005034   -3.274321    1.034032
H        -2.511413   -3.291354   -1.358121
H        -4.120767   -3.405706   -0.661520
H        -4.599787   -1.103874   -1.182879
H        -3.337920   -1.318973   -2.383437
