56
0 1
N        -0.590564    1.386102    0.936360
C        -1.041959    1.634642   -0.438061
C        -1.374619    3.138763   -0.377714
C        -2.092764    3.259929    0.991661
C        -1.534261    2.080703    1.848218
C        -2.349525    0.856667   -0.827370
O        -3.117877    1.383452   -1.625659
N        -2.649654   -0.355091   -0.254490
C        -1.733274   -1.265210    0.459209
C        -2.567104   -2.567796    0.612099
C        -3.477263   -2.556617   -0.624939
C        -3.840635   -1.076441   -0.773582
C        -0.469708   -1.492439   -0.395720
O        -0.489758   -1.337910   -1.613738
N         0.684206   -1.808002    0.262114
C         1.906100   -1.929813   -0.549417
C         2.975600   -2.409935    0.459759
C         2.145816   -3.191315    1.499053
C         0.852489   -2.363549    1.626598
C         2.273336   -0.672602   -1.369892
O         2.804483   -0.835123   -2.458698
N         1.981340    0.590565   -0.865809
C         1.923619    0.933639    0.577893
C         2.555722    2.367796    0.656722
C         3.345261    2.512792   -0.651399
C         2.463554    1.756341   -1.647849
C         0.621669    0.985528    1.423631
O         0.781800    0.815148    2.635814
H        -0.280165    1.367558   -1.160027
H        -1.985796    3.466182   -1.211598
H        -0.445147    3.708976   -0.385119
H        -3.169118    3.164781    0.860608
H        -1.911236    4.221346    1.469022
H        -2.328021    1.406479    2.172155
H        -0.995464    2.395373    2.735488
H        -1.465909   -0.869088    1.434358
H        -1.946106   -3.459888    0.679717
H        -3.156598   -2.513035    1.528939
H        -2.924649   -2.893151   -1.501381
H        -4.351850   -3.196068   -0.513977
H        -4.036835   -0.778337   -1.798266
H        -4.719405   -0.809609   -0.180408
H         1.759634   -2.692268   -1.314828
H         3.490662   -1.575516    0.934651
H         3.736481   -3.012692   -0.030670
H         1.916895   -4.189279    1.121081
H         2.655926   -3.310689    2.453680
H        -0.000393   -2.974581    1.912137
H         0.955453   -1.567838    2.363302
H         2.552792    0.250245    1.137287
H         3.151679    2.479276    1.559530
H         1.769215    3.122242    0.700654
H         4.319451    2.025763   -0.575450
H         3.515417    3.552230   -0.930626
H         1.616099    2.368061   -1.967907
H         2.978181    1.407490   -2.534732
