56
0 1
N         0.671418    1.598865    0.902058
C         0.531403    2.066619   -0.494009
C        -0.001426    3.523883   -0.342232
C         0.474627    3.953321    1.052978
C         0.338557    2.669090    1.877947
C        -0.367118    1.314515   -1.501055
O        -0.092579    1.424440   -2.692827
N        -1.482757    0.638434   -1.084510
C        -2.096464    0.666928    0.252270
C        -3.605290    0.443890   -0.046109
C        -3.620129   -0.389377   -1.338716
C        -2.418496    0.147537   -2.131814
C        -1.579521   -0.285410    1.365681
O        -1.907885   -0.003362    2.514691
N        -0.782532   -1.371085    1.102559
C        -0.617927   -2.075245   -0.182029
C        -0.364595   -3.549408    0.249045
C         0.289795   -3.433278    1.633896
C        -0.424834   -2.232260    2.264611
C         0.430672   -1.612450   -1.227982
O         0.243374   -2.027796   -2.369935
N         1.500693   -0.805258   -0.930110
C         2.061658   -0.475595    0.399460
C         3.482717    0.078287    0.076802
C         3.839839   -0.575916   -1.263856
C         2.502669   -0.578260   -2.009164
C         1.370371    0.511608    1.361800
O         1.577434    0.342150    2.561292
H         1.506610    2.099035   -0.976820
H         0.354807    4.153996   -1.153872
H        -1.091747    3.537301   -0.388863
H        -0.102690    4.780894    1.463201
H         1.519731    4.267483    1.019170
H        -0.669760    2.528126    2.270942
H         1.016176    2.611054    2.723007
H        -1.980887    1.647133    0.702371
H        -4.123396   -0.017612    0.790936
H        -4.075713    1.412726   -0.221211
H        -4.551073   -0.287750   -1.894345
H        -3.506036   -1.450538   -1.114974
H        -1.932252   -0.597627   -2.755489
H        -2.699130    0.978351   -2.781546
H        -1.539577   -2.044840   -0.748345
H        -1.325211   -4.060340    0.331927
H         0.225148   -4.094530   -0.483801
H         1.361030   -3.252180    1.543024
H         0.174480   -4.335887    2.232230
H         0.185446   -1.674957    2.968319
H        -1.335876   -2.532172    2.785541
H         2.171780   -1.381407    0.988896
H         3.452911    1.163757   -0.031338
H         4.174982   -0.139484    0.886924
H         4.621406   -0.042020   -1.803018
H         4.187794   -1.599272   -1.108973
H         2.412051   -1.359283   -2.755632
H         2.299436    0.369018   -2.509154
