56
0 1
N        -2.545457   -0.237186   -0.758015
C        -2.468650   -1.399151    0.155150
C        -3.672648   -1.210075    1.090647
C        -4.738612   -0.567654    0.145419
C        -3.965971   -0.192673   -1.162529
C        -1.104918   -1.668549    0.793928
O        -0.927950   -1.599170    2.005271
N        -0.087311   -1.970660   -0.078773
C         1.229277   -2.338939    0.490597
C         1.964910   -3.037426   -0.683719
C         0.826985   -3.536808   -1.590969
C        -0.214805   -2.412882   -1.486862
C         2.116143   -1.255378    1.163899
O         2.745885   -1.618458    2.149330
N         2.256874    0.024381    0.647451
C         1.941736    0.512760   -0.720700
C         3.325690    0.513590   -1.406467
C         4.307172    0.897224   -0.259295
C         3.470256    0.783898    1.048904
C         1.420124    1.993542   -0.650549
O         2.130722    2.924275   -1.026516
N         0.196351    2.227371   -0.111940
C        -0.791151    1.254020    0.339740
C        -1.524846    2.040572    1.461581
C        -1.547886    3.488253    0.928739
C        -0.235184    3.622652    0.127525
C        -1.811578    0.940031   -0.788269
O        -2.054267    1.795950   -1.629614
H        -2.697112   -2.269448   -0.471575
H        -3.404767   -0.555182    1.916252
H        -4.001709   -2.151616    1.526719
H        -5.177272    0.319402    0.599635
H        -5.558908   -1.251728   -0.067693
H        -4.150093   -0.923162   -1.953153
H        -4.202807    0.788163   -1.557645
H         1.059260   -3.044173    1.301272
H         2.614925   -3.829895   -0.320521
H         2.594947   -2.336189   -1.227417
H         1.143832   -3.721522   -2.616565
H         0.406315   -4.465872   -1.202193
H         0.005245   -1.596243   -2.178625
H        -1.220165   -2.751977   -1.714125
H         1.210589   -0.121261   -1.205675
H         3.367786    1.202715   -2.243702
H         3.543269   -0.484905   -1.783838
H         4.690850    1.905243   -0.389310
H         5.158454    0.218245   -0.230179
H         3.968589    0.256511    1.851691
H         3.174347    1.764574    1.416921
H        -0.292516    0.397286    0.753226
H        -2.514444    1.648415    1.685575
H        -0.931408    1.961008    2.372392
H        -2.405899    3.639999    0.278060
H        -1.612647    4.219835    1.732698
H         0.546634    4.141356    0.682587
H        -0.369863    4.150260   -0.814259
