113
0 1
O        -5.276670    1.383401   -1.831759
O        -5.124137    3.285108    0.304169
O        -1.618372   -1.334668   -3.303458
O        -0.709035   -4.221072   -0.028309
O         2.308346   -2.753494   -2.360964
O         4.289821    0.336963    1.794403
O         5.348295    3.099507   -0.203418
O         0.593548    1.652292   -1.010618
O        -2.604880    2.764269   -1.588001
N        -2.691574    1.618261    0.385725
N        -3.690236   -0.232229   -1.866307
N        -0.357882   -1.578652   -1.447147
N         1.541699   -3.989384    0.034061
N         3.790036   -1.374270   -1.349328
N         2.953589    0.886969    0.031517
N         4.898321    3.524843    1.990169
N        -0.031847    2.836241    0.841649
C        -4.388576    0.758546   -1.254473
C        -5.114906    1.982229    0.856285
C        -4.046132    1.051520    0.234997
C        -6.630041   -2.351609    1.858985
C        -1.562275   -1.395480   -2.080120
C        -4.695801   -2.610219   -0.175133
C        -2.853801   -1.256451   -1.262558
C        -3.597035   -2.637340   -1.210575
C         0.098034   -1.941763   -0.088059
C         0.274730   -3.483785   -0.033465
C        -0.785984   -1.501539    1.093267
C        -0.197279   -1.761192    2.504334
C         1.743205   -5.449333    0.116980
C         2.815311   -3.256185   -0.046720
C         2.931502   -2.440098   -1.354339
C         3.888776   -4.386436   -0.036322
C         3.175758   -5.566845    0.645841
C         3.945655    0.170822    0.627218
C         4.654716   -0.875519   -0.274154
C         5.992131   -0.324269   -0.873534
C         2.287136    1.997487    0.681603
C         3.024207    3.352802    0.413821
C         4.535079    3.293107    0.686818
C         0.857867    2.116580    0.088166
C        -0.725240    4.688896   -0.745006
C        -0.757544    6.109333   -0.132051
C        -2.207360    2.595520   -0.452438
C        -1.167612    3.558983    0.216321
C        -5.411088   -2.980018    2.124176
C        -4.455326   -3.109161    1.115382
C        -5.936605   -2.009161   -0.436648
C        -6.892474   -1.875928    0.572477
C         0.995180   -0.850320    2.843951
C        -1.314716   -1.586668    3.555085
C         6.656508   -1.379892   -1.784480
C         6.982548    0.110730    0.223811
C         0.194915    6.288223    1.067335
C        -0.454173    7.160115   -1.218862
H        -5.314882    3.159770   -0.640970
H        -2.350937    1.633911    1.331727
H        -3.835248   -0.312739   -2.859709
H         0.367149   -1.726345   -2.133888
H         3.876814   -0.941750   -2.255253
H         2.630668    0.670247   -0.896082
H         5.848501    3.302157    2.227368
H         4.237087    3.372855    2.728863
H         0.326918    3.253689    1.682577
H        -4.902564    2.091006    1.922475
H        -6.084932    1.476717    0.777222
H        -4.070331    0.116294    0.795585
H        -7.371297   -2.246885    2.640493
H        -2.634096   -0.943252   -0.260305
H        -3.979815   -2.849359   -2.209395
H        -2.870190   -3.412149   -0.975638
H         1.049571   -1.429404    0.024493
H        -1.000528   -0.438929    0.984894
H        -1.726387   -2.037936    1.043840
H         0.138659   -2.801815    2.555171
H         1.632330   -5.902790   -0.871297
H         0.992805   -5.892017    0.765647
H         2.934323   -2.619816    0.830172
H         4.151332   -4.651335   -1.060974
H         4.803260   -4.078014    0.466739
H         3.635557   -6.526359    0.414285
H         3.189155   -5.446796    1.730688
H         4.916971   -1.698921    0.386079
H         5.743980    0.559758   -1.469079
H         2.262507    1.799855    1.752165
H         2.559305    4.140389    1.006361
H         2.905552    3.615072   -0.635131
H        -1.387416    4.661159   -1.607446
H         0.270207    4.471608   -1.134812
H        -1.779182    6.287110    0.224870
H        -1.715417    3.998967    1.052223
H        -5.207377   -3.375685    3.111194
H        -3.519712   -3.613756    1.319218
H        -6.156079   -1.637986   -1.427704
H        -7.841063   -1.404430    0.350594
H         1.835088   -0.971561    2.166983
H         0.699581    0.199987    2.809437
H         1.371809   -1.047048    3.847503
H        -0.948676   -1.784498    4.562517
H        -1.707820   -0.567208    3.549121
H        -2.153619   -2.256173    3.370058
H         6.894777   -2.287050   -1.226317
H         7.591640   -0.990891   -2.184645
H         6.042873   -1.673514   -2.633228
H         7.247552   -0.725744    0.872068
H         7.899881    0.475345   -0.236128
H         6.592880    0.906213    0.845781
H         0.131396    7.297233    1.475021
H         1.234124    6.125647    0.776286
H        -0.031429    5.609761    1.891807
H        -0.523944    8.174162   -0.824712
H         0.552994    7.035742   -1.621495
H        -1.150100    7.082509   -2.053549
