113
0 1
O         2.504239    0.517410    3.035950
O         1.649137   -2.953535    2.760394
O         5.526142    2.104330    0.507090
O         3.697388    1.133169   -2.536914
O         0.366715   -1.580652   -1.785633
O        -4.682078   -1.647792   -2.626314
O        -2.802422   -3.847853   -1.012091
O        -4.527434    0.894954    1.277533
O        -1.157052    1.690101    0.221208
N        -0.187012   -0.154606    1.096851
N         2.733491   -0.207463    0.880454
N         3.424446    2.472314   -0.225438
N         1.539020    0.586328   -2.856144
N        -1.800341   -1.029172   -2.152764
N        -4.805659   -1.364580   -0.395680
N        -4.221619   -4.664787    0.560360
N        -2.783456   -0.060176    2.403789
C         2.070909   -0.095968    2.071605
C         0.760905   -2.319710    1.856694
C         0.682831   -0.787536    2.098180
C         4.062303   -4.858175    1.032310
C         4.403773    1.660866    0.303209
C         4.649705   -2.225463    0.212736
C         4.126551    0.203179    0.739055
C         4.896440   -0.787752   -0.184987
C         2.195553    2.176411   -0.966806
C         2.526538    1.244045   -2.175035
C         1.610867    3.518121   -1.494647
C         1.503124    4.689005   -0.478381
C         1.948695   -0.108530   -4.107225
C         0.067830    0.615346   -2.753097
C        -0.452873   -0.730746   -2.150177
C        -0.322200    0.731169   -4.247770
C         0.644973   -0.263861   -4.913628
C        -4.189342   -1.153779   -1.625787
C        -2.969403   -0.202334   -1.705887
C        -3.324575    1.041305   -2.586012
C        -4.232566   -1.494454    0.948780
C        -3.076608   -2.541538    1.003923
C        -3.328041   -3.745911    0.087849
C        -3.866945   -0.089645    1.550454
C        -1.229764    1.348678    3.819377
C        -1.983034    2.347057    4.740123
C        -0.985724    0.961949    1.198876
C        -1.897310    1.124004    2.442870
C         3.478475   -4.335364   -0.122701
C         3.772029   -3.030987   -0.528092
C         5.233706   -2.764324    1.369380
C         4.946093   -4.068898    1.775564
C         0.772426    4.317365    0.824673
C         0.826196    5.892884   -1.167080
C        -4.293804    1.974376   -1.829544
C        -3.859158    0.733811   -4.000549
C        -3.438510    1.920698    5.019600
C        -1.907008    3.793200    4.208904
H         2.549225   -2.918843    2.408873
H         0.150563   -0.280132    0.157526
H         2.342682   -0.769265    0.144052
H         3.863709    3.334731   -0.502564
H        -1.917901   -2.004485   -1.902618
H        -5.618758   -1.941018   -0.539297
H        -4.396638   -5.483371    0.007106
H        -4.538246   -4.674144    1.510433
H        -2.293710   -0.923771    2.545056
H        -0.228682   -2.740755    2.038500
H         0.992222   -2.534288    0.809735
H         0.293141   -0.620103    3.093837
H         3.832837   -5.865790    1.351915
H         4.561113    0.151715    1.735686
H         5.951060   -0.527494   -0.112188
H         4.608720   -0.620260   -1.219845
H         1.469563    1.714092   -0.308698
H         0.619021    3.321006   -1.900738
H         2.221848    3.847522   -2.339988
H         2.515786    5.004486   -0.208754
H         2.686505    0.504456   -4.618897
H         2.422475   -1.061359   -3.877741
H        -0.276563    1.443154   -2.144376
H        -1.356796    0.499612   -4.453026
H        -0.129992    1.752215   -4.581341
H         0.791268   -0.060045   -5.972811
H         0.250665   -1.276854   -4.834400
H        -2.738089    0.190607   -0.723449
H        -2.393604    1.597743   -2.685433
H        -5.055933   -1.862747    1.562848
H        -2.929918   -2.875996    2.033702
H        -2.146187   -2.096454    0.666508
H        -1.137153    0.393706    4.340837
H        -0.209149    1.705918    3.674819
H        -1.443732    2.325782    5.693111
H        -2.519098    1.975408    2.192957
H         2.792823   -4.935563   -0.706117
H         3.304877   -2.634463   -1.420765
H         5.915472   -2.159687    1.954355
H         5.407850   -4.467182    2.669636
H         1.282789    3.519887    1.361776
H         0.729061    5.177647    1.493216
H        -0.248205    3.993774    0.632418
H         0.807156    6.761796   -0.509424
H        -0.207079    5.666545   -1.436613
H         1.346708    6.185787   -2.079781
H        -4.508441    2.852461   -2.438347
H        -5.243428    1.489092   -1.610631
H        -3.874645    2.314453   -0.886999
H        -4.913711    0.473909   -3.983861
H        -3.746978    1.616603   -4.631220
H        -3.346152   -0.095450   -4.479413
H        -3.898974    2.582124    5.753550
H        -4.057089    1.954616    4.123375
H        -3.491955    0.905771    5.414393
H        -2.352050    4.490452    4.918466
H        -0.875987    4.106051    4.043365
H        -2.441829    3.919382    3.266950
