113
0 1
O         0.982248    1.253625   -2.685804
O         2.227741    3.697835    0.690284
O         4.049448   -1.542367    0.289581
O         2.519865   -4.059692    2.137573
O        -1.161434   -4.253276   -0.064279
O        -1.114375    0.036244   -0.145489
O        -4.488184   -2.809603   -0.891474
O        -3.064248   -0.168167    2.426319
O        -0.297539    3.079161    1.345125
N        -0.536907    3.154987   -0.944533
N         2.392346    1.420397   -0.888730
N         1.942158   -0.821086    0.737017
N         1.537591   -3.747010    0.132987
N        -1.582537   -2.669032   -1.630012
N        -3.243557   -0.108447   -0.963235
N        -3.605012   -2.858935    1.213156
N        -2.780022    1.900549    1.561381
C         1.431187    1.874523   -1.720963
C         1.741559    4.231659   -0.532054
C         0.865909    3.291365   -1.397541
C         6.411923    3.571501    0.953016
C         3.114474   -0.784459    0.049958
C         5.284726    1.585429   -0.695976
C         3.162474    0.208850   -1.142049
C         4.619251    0.543771   -1.571427
C         1.734046   -1.821786    1.790932
C         1.965170   -3.295527    1.353120
C         0.348601   -1.653275    2.459527
C         0.271126   -2.291873    3.872852
C         1.914581   -5.124949   -0.260172
C         0.782564   -3.084060   -0.926488
C        -0.734493   -3.364921   -0.798875
C         1.350394   -3.765817   -2.197924
C         1.503700   -5.231317   -1.744736
C        -1.900420   -0.366348   -1.000987
C        -1.419677   -1.299708   -2.150488
C        -2.108971   -1.135344   -3.531984
C        -4.045159    0.217041    0.235404
C        -5.013887   -0.965286    0.556942
C        -4.358252   -2.316479    0.237163
C        -3.194171    0.601825    1.480403
C        -3.144969    4.211973    0.731757
C        -4.691561    4.234181    0.736173
C        -0.983432    2.990752    0.323583
C        -2.515094    2.820474    0.458633
C         6.350586    2.245582    1.386044
C         5.793326    1.259752    0.570785
C         5.361851    2.918838   -1.123290
C         5.918644    3.905488   -0.308632
C         0.992760   -1.425142    4.924886
C        -1.193558   -2.534560    4.284471
C        -1.442983   -2.057175   -4.573038
C        -2.080163    0.333291   -4.008444
C        -5.280060    4.062698   -0.679677
C        -5.204526    5.539212    1.378273
H         1.432900    3.467878    1.217339
H        -1.163646    2.870299   -1.676294
H         2.680733    2.033828   -0.132817
H         1.174924   -0.225024    0.474471
H        -2.549026   -2.965004   -1.528297
H        -3.792290   -0.565200   -1.671825
H        -2.985846   -3.618835    0.969757
H        -3.362276   -2.293711    2.009108
H        -2.201064    2.072148    2.370491
H         1.183256    5.162383   -0.378890
H         2.619560    4.481125   -1.126480
H         0.790371    3.775828   -2.372340
H         6.842511    4.333808    1.589033
H         2.675044   -0.296520   -1.976864
H         5.181485   -0.387929   -1.570951
H         4.580495    0.900412   -2.600859
H         2.516162   -1.670762    2.532423
H        -0.417580   -2.082184    1.815159
H         0.110942   -0.589746    2.533636
H         0.772610   -3.260984    3.835207
H         1.410807   -5.857379    0.367411
H         2.986447   -5.249892   -0.111472
H         0.962950   -2.020868   -0.926846
H         2.322494   -3.323453   -2.420188
H         0.719069   -3.645294   -3.074597
H         2.238247   -5.775172   -2.336298
H         0.554696   -5.756620   -1.844346
H        -0.365945   -1.075108   -2.278179
H        -3.152985   -1.459369   -3.443992
H        -4.665839    1.079634   -0.008236
H        -5.348307   -0.888468    1.588482
H        -5.887626   -0.884737   -0.086261
H        -2.762020    4.560968    1.692821
H        -2.772030    4.918633   -0.014925
H        -5.034345    3.401690    1.358967
H        -2.922256    2.404212   -0.456275
H         6.739103    1.975173    2.359480
H         5.751605    0.236028    0.912629
H         4.987938    3.184037   -2.105005
H         5.969083    4.928408   -0.659349
H         0.985156   -1.908153    5.902139
H         0.507301   -0.453257    5.036648
H         2.036202   -1.242858    4.670530
H        -1.678733   -3.243950    3.613200
H        -1.256323   -2.952797    5.289587
H        -1.773356   -1.612009    4.271597
H        -1.471794   -3.099800   -4.265642
H        -1.952428   -1.981838   -5.532955
H        -0.400592   -1.779243   -4.733818
H        -1.062878    0.717956   -4.035072
H        -2.663149    0.989808   -3.363571
H        -2.500145    0.416182   -5.010097
H        -6.369019    4.034530   -0.651964
H        -4.994035    4.893023   -1.327968
H        -4.953458    3.146023   -1.171313
H        -4.852038    5.646957    2.403925
H        -6.293833    5.567593    1.401679
H        -4.868678    6.416487    0.822292
