160
0 1
O         5.945388    0.953061   -2.075734
O         4.237519    0.779909    2.144665
O         2.611185   -3.414033    0.911017
O        -2.046228   -2.826372   -1.328635
O        -2.063318   -0.308693    0.571800
O        -4.572292    0.533560    2.531867
O        -2.236235    3.735270   -1.693139
O         0.409946    1.922541    1.938315
O         1.449041    1.641898   -2.376831
N         3.176000    0.192485   -2.083315
N         6.184007    0.234264    0.062295
N         3.856356   -1.478647    2.171132
N         0.651321   -2.262092    0.799833
N        -0.470545   -1.192112   -1.500796
N        -3.766769    0.095088   -0.870966
N        -3.882262    2.218261    1.198051
N        -1.363975    3.025778    0.301823
N         2.182593    2.116318    0.570975
C         2.761821   -0.636135   -3.239363
C         3.160078   -2.054792   -2.828439
C         4.448221   -1.835103   -2.018081
C         4.198803   -0.501556   -1.261158
C         5.519461    0.294250   -1.133879
C         7.367278    1.093940    0.278792
C         7.558080    1.041217    1.797681
C         7.144890   -0.400231    2.143341
C         5.940868   -0.675885    1.200694
C         4.588444   -0.372360    1.893795
C         2.404315   -1.491366    2.365139
C         1.886048   -2.491110    1.298094
C         2.002751   -1.918503    3.806680
C         0.502525   -2.058983    3.968910
C        -0.077958   -3.317595    4.168800
C        -1.465180   -3.457932    4.250014
C        -2.289683   -2.339475    4.121166
C        -1.722101   -1.079158    3.916538
C        -0.335438   -0.938239    3.850456
C         0.050948   -3.191305   -0.166610
C        -0.930178   -2.402956   -1.059105
C        -0.623474   -4.407019    0.521552
C        -0.797391   -5.584630   -0.415728
C        -2.051590   -5.958703   -0.911767
C        -2.178263   -7.047200   -1.775868
C        -1.051327   -7.774505   -2.163659
C         0.205107   -7.409261   -1.675387
C         0.328598   -6.325492   -0.805950
C        -1.419080   -0.086974   -1.735857
C        -2.467648   -0.149404   -0.578082
C        -1.804953    0.192112   -3.213684
C        -2.333070   -0.871276   -4.217626
C        -1.319556   -1.989575   -4.542545
C        -3.716695   -1.462234   -3.887600
C        -4.843403    0.177627    0.130550
C        -4.396295    0.957600    1.398034
C        -5.539870   -1.172640    0.467872
C        -4.579192   -2.266166    0.991201
C        -5.293499   -3.456359    1.653864
C        -6.365146   -1.657933   -0.742904
C        -3.811868    3.033598   -0.011385
C        -2.375808    3.278941   -0.559357
C        -4.553632    4.400542    0.167882
C        -6.083570    4.176152    0.235316
C        -6.918875    5.467099    0.261676
C        -4.026554    5.214433    1.368361
C         0.038413    3.375291    0.067517
C         0.884429    2.385602    0.895566
C         0.330062    4.811234    0.609674
C        -0.316050    5.994588   -0.152155
C         0.204967    6.142319   -1.593842
C        -0.094260    7.295324    0.648577
C         3.018822    2.236191   -0.644134
C         2.473269    1.324770   -1.765837
C         3.263426    3.688178   -1.150739
C         4.005656    3.721655   -2.503034
C         4.046996    4.479693   -0.085372
H         4.181713   -2.367261    1.818889
H         0.042283   -1.580259    1.229722
H         0.411430   -0.897908   -1.122801
H        -4.041132    0.103504   -1.833777
H        -3.708100    2.683491    2.073108
H        -1.536403    2.511455    1.150070
H         2.659665    1.637273    1.322053
H         3.301092   -0.304230   -4.129777
H         1.701224   -0.517105   -3.427545
H         2.387078   -2.497085   -2.201045
H         3.305009   -2.716235   -3.681040
H         5.299871   -1.720204   -2.688590
H         4.664081   -2.649794   -1.329714
H         3.761084   -0.717081   -0.293303
H         8.232661    0.698552   -0.260129
H         7.175681    2.091615   -0.107596
H         8.577668    1.273205    2.100981
H         6.888652    1.749463    2.283282
H         7.950564   -1.097615    1.909568
H         6.887018   -0.541052    3.191429
H         5.956598   -1.712523    0.859553
H         2.015639   -0.494645    2.175307
H         2.504018   -2.857947    4.042256
H         2.406846   -1.164101    4.484085
H         0.555914   -4.191249    4.258622
H        -1.896702   -4.437878    4.408598
H        -3.364283   -2.442651    4.177218
H        -2.361168   -0.217748    3.792610
H         0.086986    0.042313    3.677589
H         0.869463   -3.562045   -0.782946
H         0.022815   -4.697563    1.348500
H        -1.569927   -4.095536    0.957207
H        -2.925561   -5.390143   -0.628943
H        -3.156445   -7.323640   -2.148236
H        -1.150758   -8.616826   -2.836049
H         1.084884   -7.970128   -1.964493
H         1.303781   -6.051212   -0.421216
H        -0.856926    0.804748   -1.466404
H        -0.895911    0.607342   -3.651159
H        -2.493791    1.041362   -3.195951
H        -2.454316   -0.292920   -5.141623
H        -1.239758   -2.718212   -3.742561
H        -1.629760   -2.529917   -5.437898
H        -0.325397   -1.586714   -4.736323
H        -4.478661   -0.684362   -3.792788
H        -4.055505   -2.120814   -4.688072
H        -3.690372   -2.048385   -2.974081
H        -5.609197    0.805877   -0.334105
H        -6.238797   -0.926084    1.271931
H        -3.900072   -1.825441    1.712419
H        -3.960745   -2.627548    0.171595
H        -4.565159   -4.162957    2.052870
H        -5.926996   -4.013104    0.963315
H        -5.921359   -3.134791    2.486684
H        -6.971259   -2.523944   -0.485776
H        -5.728110   -1.952706   -1.576076
H        -7.051761   -0.890058   -1.104628
H        -4.318464    2.510017   -0.813413
H        -4.334604    4.959741   -0.744799
H        -6.326519    3.568880    1.111452
H        -6.386547    3.584013   -0.633291
H        -6.759879    6.045491    1.170571
H        -6.683114    6.113554   -0.584869
H        -7.983420    5.239765    0.210687
H        -4.376086    4.815927    2.322467
H        -2.939899    5.242016    1.399421
H        -4.366571    6.246424    1.321133
H         0.252265    3.292392   -0.992054
H         1.406782    4.971512    0.645138
H        -0.001975    4.821744    1.650441
H        -1.391598    5.825672   -0.212595
H        -0.005805    5.261441   -2.194384
H         1.280303    6.329028   -1.615164
H        -0.275872    6.985325   -2.090680
H        -0.562184    8.147084    0.154489
H        -0.512530    7.230014    1.653860
H         0.968209    7.524852    0.752739
H         3.979633    1.874950   -0.302179
H         2.297092    4.158921   -1.308455
H         3.412197    3.282521   -3.301109
H         4.955065    3.193381   -2.462182
H         4.208500    4.754809   -2.784821
H         5.071123    4.111445   -0.001848
H         4.103424    5.535260   -0.349998
H         3.597940    4.408924    0.903244
