160
0 1
O        -3.162377   -2.051035   -0.107043
O        -2.933123   -4.070497   -2.543985
O         0.425089   -1.471179   -3.934393
O         4.910421   -0.344218   -2.675675
O         2.679127    1.395347    2.311358
O         2.952798    3.405507   -2.075545
O        -0.511170    2.493437   -1.907065
O        -1.121144    1.749024    1.402004
O        -4.013029   -1.539464    2.853731
N        -5.469714   -1.572763    1.116627
N        -3.117392   -4.273977    0.248847
N        -0.914615   -3.063575   -2.366435
N         2.321475   -1.398473   -2.714159
N         4.626543   -0.009106   -0.455613
N         2.961565    2.065657    0.147044
N         1.112918    4.635381   -1.673884
N        -2.153928    3.354065   -0.540851
N        -3.127785    0.914773    2.011408
C        -6.342174   -0.988035    0.077074
C        -6.376820   -2.055800   -1.026362
C        -6.193299   -3.373011   -0.251993
C        -5.173972   -2.991205    0.849638
C        -3.719333   -3.066786    0.309063
C        -3.648926   -5.596019    0.617771
C        -2.884161   -6.541764   -0.321650
C        -1.496627   -5.878209   -0.422406
C        -1.808966   -4.359841   -0.430366
C        -1.943863   -3.799317   -1.866959
C         0.312906   -2.544995   -1.757733
C         1.025638   -1.767048   -2.905142
C         0.084794   -1.600023   -0.526058
C         0.670990   -2.020014    0.820538
C         0.663089   -1.067892    1.853393
C         1.158762   -1.371659    3.119604
C         1.668413   -2.642620    3.393961
C         1.674821   -3.602884    2.384622
C         1.184068   -3.292963    1.112219
C         3.270816   -1.758022   -1.660069
C         4.328489   -0.631222   -1.632223
C         4.003896   -3.103336   -1.976440
C         5.085270   -3.435324   -0.971274
C         6.421951   -3.091379   -1.217271
C         7.413944   -3.367997   -0.275494
C         7.084709   -3.983708    0.934184
C         5.755617   -4.325471    1.192008
C         4.767797   -4.056336    0.244129
C         3.991591   -0.052606    0.864775
C         3.152202    1.227958    1.189699
C         4.963598   -0.437715    2.007023
C         6.231423    0.413382    2.303407
C         7.370577    0.264917    1.268811
C         5.944839    1.899760    2.592960
C         2.161000    3.289616    0.194271
C         2.083294    3.749121   -1.278735
C         2.845714    4.366931    1.119778
C         1.886822    5.460031    1.645629
C         0.756130    4.952108    2.559435
C         4.092333    4.991599    0.466022
C        -0.247268    4.791138   -1.162767
C        -0.979081    3.402644   -1.241742
C        -0.926717    5.935661   -1.995395
C        -2.397934    6.254765   -1.617330
C        -2.630555    6.851794   -0.215896
C        -0.068660    7.222321   -1.958564
C        -2.918443    2.160478   -0.161758
C        -2.315448    1.595583    1.154942
C        -2.952433    1.045995   -1.232479
C        -3.463422    1.445749   -2.635802
C        -4.938715    1.889820   -2.636465
C        -3.231941    0.265965   -3.603660
C        -4.564064    0.620985    1.971871
C        -4.676806   -0.926105    2.020533
C        -5.303555    1.277762    3.176239
C        -5.122975    2.806338    3.174812
C        -6.797397    0.897468    3.189191
H        -1.067348   -2.706246   -3.299441
H         2.728520   -0.904332   -3.493371
H         5.384544    0.643330   -0.566172
H         3.391560    1.890299   -0.744979
H         1.184272    4.759028   -2.671997
H        -2.307196    4.124968    0.083177
H        -2.633313    0.437238    2.749502
H        -5.963267   -0.040792   -0.292946
H        -7.338928   -0.805108    0.486838
H        -5.545028   -1.914317   -1.714048
H        -7.297991   -2.024877   -1.605804
H        -7.130475   -3.695035    0.205364
H        -5.838174   -4.175556   -0.893799
H        -5.283163   -3.585099    1.754023
H        -4.725223   -5.655443    0.481690
H        -3.434528   -5.815066    1.668655
H        -2.847430   -7.564437    0.051372
H        -3.361906   -6.547350   -1.299799
H        -0.888903   -6.121097    0.451102
H        -0.940094   -6.191816   -1.303751
H        -1.079537   -3.811108    0.149530
H         0.954548   -3.380934   -1.480775
H        -0.989755   -1.485774   -0.405515
H         0.449066   -0.598323   -0.757525
H         0.277224   -0.077287    1.666366
H         1.161928   -0.603638    3.879602
H         2.056124   -2.878711    4.376231
H         2.062295   -4.595135    2.578174
H         1.213265   -4.065933    0.357361
H         2.747974   -1.856560   -0.718698
H         3.253408   -3.894274   -2.010404
H         4.422957   -3.019370   -2.977651
H         6.682692   -2.600575   -2.145026
H         8.442019   -3.105118   -0.488418
H         7.854064   -4.196416    1.664768
H         5.487299   -4.803130    2.125450
H         3.743218   -4.327142    0.452445
H         3.250868   -0.846294    0.846424
H         4.351332   -0.458151    2.907562
H         5.276101   -1.465588    1.823673
H         6.616943   -0.020922    3.233275
H         7.515676   -0.770390    0.967347
H         7.204681    0.848731    0.362515
H         8.311554    0.625247    1.686314
H         5.172701    2.025592    3.348169
H         5.614492    2.430978    1.700783
H         6.846486    2.403974    2.942818
H         1.180012    3.036917    0.589599
H         3.168535    3.798355    1.991665
H         1.484706    6.042005    0.813346
H         2.489629    6.172199    2.215790
H         0.161426    5.783616    2.939775
H         1.161295    4.417042    3.417769
H         0.075135    4.260327    2.067003
H         4.664433    5.554478    1.203281
H         3.831219    5.679525   -0.338365
H         4.753604    4.238787    0.042853
H        -0.204920    5.100847   -0.121410
H        -0.954868    5.576892   -3.031229
H        -2.766975    6.970435   -2.355777
H        -3.013267    5.366545   -1.749017
H        -2.153839    7.823306   -0.099454
H        -2.250906    6.224492    0.592371
H        -3.695241    6.994158   -0.033738
H         0.912437    7.085010   -2.403565
H         0.094112    7.569997   -0.939113
H        -0.565137    8.025102   -2.503831
H        -3.933263    2.516541    0.017607
H        -1.953082    0.636906   -1.325533
H        -3.562539    0.234825   -0.841434
H        -2.862682    2.282681   -2.995435
H        -5.602647    1.081000   -2.325211
H        -5.256250    2.191958   -3.634793
H        -5.122011    2.739902   -1.977735
H        -3.753516   -0.634893   -3.275360
H        -2.174305    0.017559   -3.677572
H        -3.585019    0.502265   -4.607962
H        -4.974853    1.026589    1.055418
H        -4.843520    0.872260    4.082567
H        -5.601248    3.253167    4.046028
H        -5.577070    3.260678    2.291240
H        -4.073651    3.092518    3.196087
H        -6.949082   -0.178837    3.247972
H        -7.310576    1.258995    2.296227
H        -7.299447    1.341067    4.048134
