95
0 1
O         1.330680    1.171428   -1.718197
O         3.596575   -0.774960    2.535363
O         0.428506   -3.943123    1.891281
O        -3.195360   -2.015032    2.258252
O        -1.886873    2.283404    2.589476
N         1.775941    1.093168    0.525722
N         2.077920   -1.940845    1.331209
N        -1.282970   -3.195817    0.612740
N        -2.634102    0.005930    1.426057
N        -0.430729    2.858671    0.959582
C         1.152281    1.591282   -0.579773
C         0.213138    2.806588   -0.354294
C         1.030901    4.098346   -0.594990
C         0.229861    5.424948   -0.602327
C        -0.877148    5.440504   -1.673614
C         1.201045    6.608323   -0.794278
C         2.899703   -0.869428    1.530076
C         2.950676    0.207603    0.414335
C         4.251339    1.033593    0.473742
C         5.554766    0.257139    0.162063
C         5.572990   -0.319584   -1.268117
C         6.772505    1.175029    0.393034
C         0.016844   -3.147649    1.054198
C         0.963244   -2.107174    0.400837
C         1.355796   -2.508548   -1.065459
C         2.555262   -3.466976   -1.246317
C         2.965859   -3.490316   -2.734353
C         2.283813   -4.895278   -0.735653
C        -2.691327   -1.356860    1.353869
C        -2.084778   -2.067830    0.116071
C        -3.183245   -2.523433   -0.901435
C        -2.526474   -2.920537   -2.238447
C        -4.120369   -3.630478   -0.355608
C        -5.398236   -3.828782   -1.189698
C        -1.458120    2.101273    1.456124
C        -2.040383    0.997094    0.537537
C        -3.049714    1.507224   -0.542505
C        -4.432537    2.014404   -0.064942
C        -4.385657    3.421257    0.565981
C        -5.418987    1.990454   -1.252751
H         1.613324    1.535530    1.414002
H         2.092319   -2.626091    2.073055
H        -1.818705   -3.835813    1.179235
H        -2.975487    0.386094    2.296501
H        -0.145417    3.585205    1.595528
H        -0.536475    2.725181   -1.136062
H         1.822772    4.152665    0.158421
H         1.537125    3.979296   -1.554096
H        -0.250741    5.552510    0.373925
H        -0.471096    5.256017   -2.669603
H        -1.647083    4.693506   -1.487371
H        -1.377935    6.407770   -1.699706
H         0.673745    7.560783   -0.750698
H         1.973823    6.626900   -0.025335
H         1.703485    6.557095   -1.761581
H         2.866000   -0.260038   -0.558814
H         4.329874    1.479031    1.466225
H         4.147632    1.854308   -0.241253
H         5.628128   -0.571006    0.870238
H         4.785820   -1.052412   -1.436336
H         6.517940   -0.822853   -1.473144
H         5.452461    0.464865   -2.017858
H         6.758881    2.035912   -0.278977
H         6.799670    1.555379    1.414293
H         7.707622    0.642736    0.218009
H         0.436921   -1.158440    0.336504
H         0.475857   -2.939878   -1.544913
H         1.554051   -1.586868   -1.611489
H         3.396258   -3.062533   -0.675458
H         3.838294   -4.124768   -2.890868
H         2.163885   -3.882041   -3.363255
H         3.213080   -2.495384   -3.105858
H         1.418925   -5.335289   -1.236597
H         2.092678   -4.925268    0.332335
H         3.136809   -5.544588   -0.934494
H        -1.424846   -1.404533   -0.429837
H        -3.798381   -1.633939   -1.079051
H        -1.915816   -2.113464   -2.644258
H        -1.884175   -3.791745   -2.115112
H        -3.270863   -3.165922   -2.992822
H        -3.573591   -4.576321   -0.309454
H        -4.404932   -3.392468    0.667580
H        -6.042521   -4.578144   -0.731170
H        -5.193123   -4.163106   -2.205842
H        -5.975417   -2.905327   -1.258522
H        -1.212138    0.544622   -0.001596
H        -3.201825    0.661998   -1.216212
H        -2.575319    2.277416   -1.153474
H        -4.808143    1.313453    0.686025
H        -5.388642    3.757924    0.828073
H        -3.792434    3.451954    1.474239
H        -3.974289    4.153834   -0.131631
H        -6.410353    2.323836   -0.946923
H        -5.526001    0.989099   -1.671220
H        -5.090555    2.648711   -2.059677
