95
0 1
O        -0.445274   -4.342052   -0.898312
O         1.530788   -1.342877   -2.075818
O         0.980342    0.556260    2.641951
O         0.191471    2.367001   -2.008625
O        -3.345485   -1.444944   -2.697070
N         1.282007   -3.168829   -0.024169
N         1.918547    0.403913   -0.692430
N        -0.403708    1.495963    1.153452
N        -1.440828    0.825283   -1.730551
N        -2.091129   -2.257072   -0.993781
C        -0.028427   -3.312071   -0.378323
C        -1.006587   -2.168479   -0.011962
C        -1.505620   -2.260545    1.460216
C        -2.192225   -3.585640    1.889857
C        -3.306496   -3.295605    2.917395
C        -1.190029   -4.608403    2.465091
C         1.789457   -0.933183   -0.951474
C         1.991087   -1.915762    0.240091
C         3.486542   -2.236500    0.509197
C         4.335954   -2.711669   -0.707609
C         5.399759   -3.729263   -0.245872
C         5.005940   -1.535322   -1.448674
C         0.852665    1.057314    1.525837
C         2.097991    1.081640    0.591458
C         2.682689    2.493268    0.367273
C         4.153555    2.511550   -0.123410
C         4.522190    3.931272   -0.600207
C         5.145066    2.023968    0.950733
C        -0.692827    1.877506   -1.302628
C        -0.977449    2.403022    0.129786
C        -0.646562    3.916069    0.287849
C        -1.595320    4.731247   -0.616832
C        -0.731924    4.355885    1.769282
C        -0.341612    5.822855    2.017812
C        -2.709785   -1.249117   -1.668471
C        -2.598580    0.186312   -1.071884
C        -3.907736    0.981705   -1.289628
C        -4.999705    0.742955   -0.218014
C        -5.480839   -0.720278   -0.142077
C        -6.188275    1.694475   -0.464045
H         1.839056   -3.930118   -0.375229
H         1.704595    0.987750   -1.486810
H        -1.018179    1.354952    1.938665
H        -1.223487    0.522330   -2.667281
H        -2.145180   -3.157518   -1.448716
H        -0.518120   -1.207814   -0.124785
H        -2.207468   -1.433925    1.586810
H        -0.672314   -2.032716    2.128781
H        -2.664084   -4.029641    1.009557
H        -4.076260   -2.643679    2.503033
H        -3.796614   -4.213767    3.241712
H        -2.909055   -2.807883    3.810026
H        -0.717459   -4.224555    3.371448
H        -0.401212   -4.863152    1.763628
H        -1.694199   -5.537923    2.730024
H         1.593195   -1.484368    1.155692
H         3.959447   -1.363605    0.959481
H         3.488713   -2.999018    1.291043
H         3.681283   -3.214834   -1.425391
H         6.072822   -3.292531    0.494590
H         6.012830   -4.068361   -1.080704
H         4.946671   -4.611721    0.207380
H         4.286879   -0.814200   -1.825846
H         5.577712   -1.892661   -2.304871
H         5.698873   -1.004331   -0.793153
H         2.813827    0.521251    1.183168
H         2.607723    3.053291    1.302627
H         2.064460    3.011538   -0.361440
H         4.229790    1.841532   -0.985226
H         5.545370    3.969993   -0.973669
H         4.445741    4.656784    0.212178
H         3.867023    4.268234   -1.403531
H         5.111916    2.658882    1.838041
H         4.949623    1.003208    1.276029
H         6.167604    2.043303    0.574203
H        -2.047629    2.317614    0.308141
H         0.370872    4.089082   -0.059109
H        -1.545890    4.405189   -1.652681
H        -1.337436    5.787613   -0.609793
H        -2.632479    4.648351   -0.284815
H        -0.077693    3.724411    2.371336
H        -1.745738    4.181623    2.147116
H        -0.319998    6.038738    3.085476
H         0.651367    6.041602    1.622313
H        -1.037137    6.526132    1.563282
H        -2.382816    0.125031   -0.009292
H        -4.290554    0.746119   -2.282639
H        -3.660828    2.044441   -1.300810
H        -4.566816    1.002219    0.758270
H        -6.279022   -0.825325    0.593134
H        -4.688797   -1.407113    0.149155
H        -5.865428   -1.061798   -1.102437
H        -5.875583    2.739353   -0.478105
H        -6.947085    1.589936    0.311469
H        -6.669161    1.484908   -1.420732
