108
0 1
N         0.807788    0.741364    0.257602
N        -2.340709    2.511113   -0.087682
N        -4.261243    0.834138   -1.762727
N        -3.416463   -1.781956   -0.687547
N        -1.033669   -3.177003   -0.641812
N         1.510938   -2.114040    1.858816
N         4.026795   -2.668576   -0.634782
N         3.877739    0.251154    0.176947
O        -1.310592   -0.034516    0.104927
O        -1.339997    2.438585   -2.143962
O        -4.671918    1.063959    0.481300
O        -3.723182   -2.265452   -2.907630
O         0.843533   -1.918516   -0.817325
O         3.668596   -1.694164    2.366265
O         3.418994   -1.967692   -2.723652
O         3.688607    1.636383    1.966449
O        -2.114465    1.231350    2.704844
C        -0.534036    0.906582    0.303092
C        -1.111220    2.294049    0.668745
C        -2.347044    2.402997   -1.444846
C        -3.759410    2.195132   -2.073582
C        -4.572853    0.359327   -0.531937
C        -4.741513   -1.185909   -0.476554
C        -3.016618   -2.252378   -1.902554
C        -1.584467   -2.828396   -1.946647
C         0.084017   -2.595541   -0.132007
C         0.370265   -2.889871    1.375291
C         2.862697   -2.265364    1.647388
C         3.295564   -3.232570    0.538793
C         3.561695   -1.693139   -1.543082
C         3.593521   -0.167237   -1.201325
C         3.200536    1.175665    0.938198
C         1.835658    1.762070    0.474745
C        -1.382882    2.358014    2.205868
C        -2.009098    3.700468    2.621518
C        -4.774274    3.303893   -1.751156
C        -5.366479   -1.643741    0.853366
C        -6.047149   -3.034682    0.835177
C        -6.723566   -3.294133    2.197700
C        -5.104890   -4.200662    0.471799
C        -0.830991   -2.590285    2.297857
C         4.296933   -4.275079    1.094340
C         5.143610   -4.704957   -0.135532
C         4.575738   -3.878595   -1.301939
C         4.841814    0.397012   -1.943933
C         5.987694    0.035240   -0.977075
C         5.343431    0.113656    0.431980
C         2.011515    2.766867   -0.734749
C         1.777781    4.215737   -0.344814
C         2.495465    4.796590    0.713381
C         2.265612    6.121587    1.083624
C         1.319874    6.891268    0.401449
C         0.607100    6.324465   -0.655813
C         0.834388    4.997165   -1.026869
H         1.087782   -0.188064   -0.023815
H        -3.208852    2.260548    0.361897
H        -4.141812    0.148471   -2.490532
H        -2.687670   -1.445609   -0.075099
H        -1.609779   -3.741821   -0.045463
H         1.319902   -1.471993    2.609869
H        -2.961927    1.147952    2.242287
H        -0.419099    3.092390    0.426084
H        -3.580034    2.193250   -3.145746
H        -5.363429   -1.503352   -1.313345
H        -1.610518   -3.691579   -2.611071
H        -0.918213   -2.096433   -2.397319
H         0.593240   -3.959686    1.449887
H         2.428301   -3.764330    0.142701
H         2.670413    0.256511   -1.578358
H         1.542981    2.339434    1.344574
H        -0.407871    2.277332    2.689792
H        -2.104951    3.740393    3.704588
H        -3.000422    3.841802    2.193554
H        -1.389528    4.537422    2.299983
H        -4.369597    4.268574   -2.054016
H        -5.698151    3.137116   -2.302860
H        -5.020943    3.354158   -0.696261
H        -6.109907   -0.901586    1.144243
H        -4.605825   -1.610013    1.638090
H        -6.836729   -3.002055    0.074502
H        -5.987311   -3.350664    3.001945
H        -7.427348   -2.503075    2.457320
H        -7.274024   -4.234924    2.194935
H        -4.242227   -4.236354    1.141100
H        -5.622316   -5.156080    0.564075
H        -4.734984   -4.133804   -0.547922
H        -0.574613   -2.833309    3.327709
H        -1.118671   -1.542817    2.247735
H        -1.703526   -3.187767    2.044589
H         4.915176   -3.810559    1.857477
H         3.765403   -5.104388    1.560972
H         6.194285   -4.469706    0.027867
H         5.082788   -5.772970   -0.339179
H         3.793002   -4.426119   -1.836206
H         5.319108   -3.586930   -2.038853
H         4.957261   -0.004717   -2.945728
H         4.735962    1.479439   -2.027437
H         6.837120    0.710122   -1.072142
H         6.355015   -0.969819   -1.180766
H         5.532417   -0.766459    1.036071
H         5.666938    0.979834    1.000109
H         3.017623    2.674427   -1.144053
H         1.325749    2.477449   -1.527057
H         3.223367    4.208224    1.256081
H         2.825543    6.551715    1.904156
H         1.141828    7.918720    0.691350
H        -0.129649    6.910233   -1.190683
H         0.263380    4.557137   -1.832436
