93
0 1
O        -1.827843   -0.608110   -2.796930
O        -3.759335   -0.905184    2.364431
N         2.049331   -1.225021    1.685999
O         0.342862   -2.164326    3.437926
O        -0.943073    1.004966    1.907079
N        -3.884302   -0.176778    0.210562
O         2.328487    4.261861    0.845492
N        -1.421322   -2.186264    2.027655
N         0.778532    1.826084    0.717462
C        -2.148338   -1.825435    0.825390
O         3.541915    0.463050    1.775188
N        -1.490045    1.124538   -1.391401
C        -3.329535   -0.918077    1.217127
N         2.183153    0.039605   -1.318098
C         1.715701    1.312908   -1.557925
C        -1.618113    1.969658   -0.196687
C        -0.098716   -2.076636    2.294483
O         1.305474    1.587196   -2.687762
C         0.909525   -1.943278    1.112033
C         3.208952   -0.541284   -0.412531
C         2.752548    3.168111    0.018267
C        -0.561545    1.571065    0.886794
C         2.925899   -0.368141    1.102178
C        -1.705375    3.466572   -0.583583
C        -3.594179   -0.320542   -1.234529
C         0.135603   -3.983333   -0.210041
C         1.497085    2.357268   -0.435956
C         4.632623   -0.078606   -0.792191
C         5.802135   -0.822281   -0.098552
C        -2.204860    0.037588   -1.823352
C        -5.139437    0.570582    0.457324
C        -0.654864   -5.013133    0.314673
C        -1.744089   -5.511483   -0.402617
C         1.266870   -3.374915    0.589895
C        -1.608318    4.468159    0.591784
C        -0.188419   -3.467177   -1.473495
C         5.743118   -2.351205   -0.294454
C        -1.282544   -3.952086   -2.189111
C        -2.063924   -4.979229   -1.654054
C        -5.845181    0.539210   -0.904121
C         3.495195    3.768803   -1.175615
C        -1.673641    5.911580    0.054001
C        -4.674558    0.576424   -1.899497
C         7.142815   -0.257072   -0.610888
C        -2.691669    4.224283    1.662634
H         1.989282   -1.153564    2.693981
H         2.035980    3.910691    1.696904
H        -1.998133   -2.182439    2.856828
H         1.331841    1.457678    1.473866
H        -1.492657   -1.345229    0.114924
H        -2.543516   -2.713940    0.325774
H        -0.712204    1.319496   -2.006222
H         2.127667   -0.470211   -2.186944
H        -2.542624    1.699518    0.289554
H         0.507034   -1.360353    0.289303
H         3.136896   -1.604376   -0.621481
H         3.421434    2.511820    0.577252
H        -2.663556    3.599442   -1.094892
H        -0.952950    3.710316   -1.334055
H        -3.743063   -1.357809   -1.538493
H         0.868273    3.093746   -0.918357
H         4.727954   -0.200247   -1.875346
H         4.724417    0.987391   -0.593333
H         5.741958   -0.612829    0.970991
H        -5.696887    0.099504    1.261280
H        -4.916058    1.592631    0.775818
H        -0.425570   -5.416199    1.292511
H        -2.343599   -6.308063    0.018547
H         2.161738   -3.305488   -0.029004
H         1.534166   -3.995966    1.444394
H        -0.627272    4.344222    1.059579
H         0.396200   -2.659730   -1.895467
H         4.879382   -2.803531    0.192134
H         6.624146   -2.830596    0.131644
H         5.709070   -2.622276   -1.352025
H        -1.529470   -3.512864   -3.144935
H        -2.913260   -5.360197   -2.205945
H        -6.409216   -0.388941   -1.013354
H        -6.542981    1.364695   -1.037193
H         4.337456    4.358738   -0.821428
H         2.844521    4.422392   -1.754400
H         3.877046    3.000545   -1.843900
H        -1.561785    6.636644    0.859813
H        -0.882891    6.106269   -0.670760
H        -2.628051    6.113624   -0.436152
H        -4.921002    0.221032   -2.897309
H        -4.299258    1.595810   -2.003471
H         7.986123   -0.712340   -0.091796
H         7.277187   -0.445619   -1.677944
H         7.209336    0.820339   -0.457838
H        -3.693568    4.292999    1.232496
H        -2.631176    4.972270    2.452975
H        -2.598279    3.250417    2.138536
