93
0 1
O        -2.771619    0.066958   -1.526977
O        -1.319655    3.886132   -2.009011
N         3.965224    0.849033   -0.865886
O         3.231986    3.161232   -2.161300
O        -1.199582   -3.740855    0.608664
N        -2.384399    2.594817   -0.478768
O         2.146321   -3.177340   -2.985129
N         1.053499    2.671595   -1.759097
N        -1.029086   -2.489099   -1.299362
C        -0.057999    2.057797   -1.054099
O         5.301919   -0.961128   -1.134814
N        -2.918921   -0.943228    0.509850
C        -1.304888    2.934347   -1.232480
N         2.504643   -1.998494   -0.395893
C         1.172164   -1.767006   -0.434605
C        -3.094499   -2.314947    0.000902
C         2.382130    2.548037   -1.519075
O         0.589014   -0.931995    0.259292
C         2.821781    1.606799   -0.369950
C         3.463739   -1.238521    0.415617
C         0.852630   -2.538017   -2.900384
C        -1.679496   -2.940027   -0.179578
C         4.341591   -0.433459   -0.584821
C        -3.972917   -3.164682    0.932514
C        -2.501566    1.476834    0.455271
C         1.959170    3.103639    1.502148
C         0.399831   -2.696093   -1.423969
C         4.344438   -2.153420    1.292248
C         3.688696   -2.684341    2.591518
C        -2.737187    0.133496   -0.299058
C        -3.641044    3.361377   -0.605237
C         1.495270    4.347090    1.048426
C         0.290351    4.873633    1.514787
C         3.184759    2.460733    0.892967
C        -5.506524   -2.934384    0.869271
C         1.198091    2.414199    2.458431
C         2.448969   -3.574432    2.364716
C        -0.001460    2.944790    2.937315
C        -0.464277    4.173077    2.458429
C        -4.626208    2.599306    0.298722
C         0.891522   -1.085904   -3.396939
C        -5.960865   -1.537510    1.338762
C        -3.708514    1.907008    1.323362
C         4.747553   -3.439583    3.423420
C        -6.095777   -3.266677   -0.517455
H         4.544165    1.337347   -1.532402
H         2.613610   -2.854773   -3.767162
H         0.785211    3.371580   -2.435438
H        -1.433092   -1.688148   -1.759255
H        -0.271237    1.058607   -1.430166
H         0.161793    1.952581    0.000567
H        -2.688531   -0.859513    1.484820
H         2.887021   -2.616977   -1.095290
H        -3.557985   -2.214610   -0.977774
H         2.031837    0.917011   -0.104970
H         2.879895   -0.588649    1.059232
H         0.131959   -3.099807   -3.505987
H        -3.774775   -4.210061    0.694686
H        -3.622364   -3.045752    1.960820
H        -1.601790    1.370802    1.061412
H         0.603792   -3.726281   -1.135358
H         5.233157   -1.581444    1.566944
H         4.715918   -2.982728    0.686800
H         3.370494   -1.812762    3.178228
H        -3.958485    3.409225   -1.644970
H        -3.478585    4.387035   -0.268626
H         2.070466    4.895233    0.314318
H        -0.057798    5.826789    1.140050
H         3.924617    3.205510    0.599543
H         3.667388    1.797609    1.611875
H        -5.926532   -3.658743    1.576143
H         1.539043    1.451943    2.819300
H         2.116755   -4.012735    3.306539
H         2.669714   -4.400474    1.686916
H         1.602228   -3.032085    1.955613
H        -0.568473    2.402676    3.683445
H        -1.394364    4.586468    2.825904
H        -5.173259    1.852997   -0.278818
H        -5.361705    3.255274    0.760780
H         1.601710   -0.483393   -2.834566
H         1.181393   -1.047359   -4.447655
H        -0.085402   -0.609314   -3.331644
H        -5.672346   -0.757276    0.636760
H        -5.540864   -1.280615    2.312168
H        -7.046223   -1.497348    1.435727
H        -3.364383    2.618486    2.075241
H        -4.187087    1.081126    1.843309
H         5.099915   -4.330376    2.899958
H         5.619836   -2.819370    3.632760
H         4.339671   -3.766458    4.380058
H        -5.794439   -4.258056   -0.856995
H        -7.185317   -3.248394   -0.492046
H        -5.787142   -2.550144   -1.279554
