93
0 1
O         0.565517   -3.528732   -0.989708
O         2.701524   -2.266764    2.352734
N         1.701562    1.775520   -0.656703
O         3.284345   -0.611615   -2.543363
O        -1.057168    0.135764   -2.610559
N         0.642528   -3.066500    1.820653
O        -4.906502    0.218204    0.400727
N         2.346260   -1.274377   -0.592759
N        -2.492161    1.314209   -1.355552
C         1.562369   -1.069590    0.613687
O         1.636478    2.012023    1.635586
N        -1.162812   -2.129932   -1.237336
C         1.705880   -2.211031    1.640668
N        -1.107841    2.137348    1.336288
C        -2.303025    1.523484    1.152454
C        -2.289352   -1.217216   -1.044149
C         2.878205   -0.330216   -1.424840
O        -2.760775    0.766241    2.018605
C         3.020891    1.139003   -0.917914
C        -0.230745    2.886001    0.421324
C        -4.627142    1.569192    0.060326
C        -1.864443    0.132741   -1.684352
C         1.149353    2.163683    0.517592
C        -3.515963   -1.735608   -1.863805
C        -0.604898   -3.191612    1.034568
C         5.388595    0.652852   -0.190099
C        -3.106944    1.856722   -0.130051
C         0.011883    4.359128    0.845724
C        -1.127260    5.402890    0.710394
C        -0.370550   -2.923757   -0.466013
C         0.319436   -3.566544    3.164368
C         5.698634   -0.631869    0.276388
C         6.890879   -1.250877   -0.100997
C         4.079561    1.307301    0.205648
C        -4.062864   -3.124322   -1.448762
C         6.296413    1.304508   -1.034036
C        -2.290470    5.213864    1.705870
C         7.488536    0.686787   -1.411053
C         7.788311   -0.595185   -0.945455
C        -1.180595   -3.152317    3.364190
C        -5.433652    1.934286   -1.186285
C        -4.834489   -3.753812   -2.628416
C        -1.635231   -2.564649    1.990682
C        -1.622353    5.572979   -0.740092
C        -4.960749   -3.062724   -0.198032
H         1.120866    1.839334   -1.475875
H        -4.410921    0.052039    1.221796
H         2.215078   -2.168842   -1.041188
H        -2.229477    2.017100   -2.026486
H         0.518262   -0.853077    0.380952
H         1.929605   -0.212218    1.159366
H        -0.798541   -2.085968   -2.178029
H        -0.642673    1.870999    2.192907
H        -2.537622   -1.117105    0.002627
H         3.409840    1.649408   -1.797602
H        -0.636574    2.837363   -0.582361
H        -4.938892    2.238031    0.876731
H        -3.193811   -1.771232   -2.907000
H        -4.313467   -0.999093   -1.805104
H        -0.821975   -4.267728    1.013537
H        -3.041744    2.934281   -0.262938
H         0.853975    4.711174    0.242899
H         0.374181    4.347156    1.874211
H        -0.647590    6.350059    0.981733
H         0.999920   -3.125345    3.884673
H         0.441975   -4.650174    3.214824
H         5.004813   -1.147483    0.927283
H         7.116975   -2.243321    0.266747
H         3.734494    0.892921    1.144089
H         4.218107    2.375807    0.378140
H        -3.210292   -3.775696   -1.233734
H         6.071712    2.300994   -1.396089
H        -2.944405    6.086036    1.699129
H        -1.926294    5.086568    2.724708
H        -2.912838    4.351336    1.480563
H         8.180689    1.204349   -2.062831
H         8.713054   -1.076309   -1.236626
H        -1.786030   -4.015814    3.638276
H        -1.292057   -2.418813    4.160413
H        -5.127206    1.344812   -2.047411
H        -6.489733    1.746602   -1.007164
H        -5.317023    2.988490   -1.437450
H        -5.235432   -4.731449   -2.360580
H        -4.195974   -3.889574   -3.501436
H        -5.677401   -3.129510   -2.930727
H        -2.662174   -2.831256    1.756695
H        -1.561428   -1.480183    2.001697
H        -0.797135    5.756733   -1.428792
H        -2.308738    6.415118   -0.822954
H        -2.160530    4.698617   -1.108799
H        -4.461407   -2.613184    0.656461
H        -5.277926   -4.062042    0.100997
H        -5.855664   -2.469322   -0.381778
