86
0 1
N         1.427648    0.214829    0.460000
C         1.906416    0.135986   -0.927653
C         2.906190    1.269688   -1.284458
C         4.049483    1.308822   -0.316890
C         4.248264    2.217441    0.696145
N         5.373660    1.871090    1.426808
C         5.926378    0.720897    0.897763
C         7.051635   -0.009731    1.283407
C         7.364494   -1.147877    0.544961
C         6.577989   -1.543292   -0.555901
C         5.459135   -0.811143   -0.938747
C         5.111191    0.338730   -0.209578
C         0.756923    0.040881   -1.964160
O         0.697318    0.804066   -2.917508
N        -0.211483   -0.907040   -1.751072
C        -0.189813   -2.146571   -0.962438
C         0.083756   -3.339256   -1.905766
C         0.193454   -4.678613   -1.197024
O         0.503836   -5.670936   -2.076171
O         0.031244   -4.873121   -0.011498
C        -1.601279   -2.255932   -0.334373
O        -2.566095   -2.281372   -1.115894
N        -1.741157   -2.215850    1.006478
C        -3.101695   -2.168021    1.619536
C        -2.873420   -2.700125    3.038396
C        -1.439854   -2.243968    3.370779
C        -0.685352   -2.398346    2.040827
C        -3.566938   -0.682278    1.598365
O        -3.506300    0.043288    2.588870
N        -3.973935   -0.260168    0.370842
C        -4.082395    1.165861    0.036206
C        -5.248642    1.451938   -0.942254
C        -5.255872    0.550790   -2.195252
C        -6.596556    1.365944   -0.198026
C        -2.691639    1.640460   -0.486692
O        -2.453610    1.860068   -1.669311
N        -1.755575    1.750847    0.503215
C        -0.339866    2.007343    0.237391
C         0.080906    3.439765    0.662004
C        -0.585111    4.583260   -0.136975
C        -0.165436    4.591108   -1.620488
C        -0.269420    5.936875    0.532764
C         0.477200    0.999587    1.065909
O         0.285898    0.903599    2.276228
H         2.011364   -0.245884    1.138451
H         2.455267   -0.807312   -0.973314
H         2.378525    2.221058   -1.306490
H         3.257465    1.104540   -2.303444
H         3.673508    3.089179    0.957445
H         5.738310    2.386516    2.203619
H         7.659648    0.295366    2.125108
H         8.229857   -1.736000    0.819638
H         6.854471   -2.428345   -1.113345
H         4.875167   -1.117011   -1.797459
H        -0.979534   -0.837753   -2.400876
H         0.585977   -2.079240   -0.212353
H         0.998748   -3.161661   -2.472261
H        -0.717639   -3.407331   -2.642769
H         0.548933   -6.502579   -1.573423
H        -3.779707   -2.785607    1.033309
H        -3.610465   -2.316713    3.738937
H        -2.943210   -3.788923    3.030731
H        -1.442450   -1.201339    3.677262
H        -0.978378   -2.830120    4.163962
H        -0.248655   -3.387374    1.924539
H         0.093448   -1.651234    1.944439
H        -3.826128   -0.899687   -0.397437
H        -4.282740    1.682253    0.973614
H        -5.106750    2.482660   -1.278667
H        -4.302814    0.577021   -2.713812
H        -6.023245    0.887078   -2.892234
H        -5.490717   -0.485732   -1.949897
H        -6.649558    2.070846    0.632302
H        -6.761064    0.368109    0.209369
H        -7.426757    1.586717   -0.868774
H        -2.003445    1.535711    1.455972
H        -0.195035    1.892962   -0.826620
H        -0.134489    3.545627    1.726776
H         1.168105    3.524973    0.566018
H        -1.668336    4.435817   -0.092359
H         0.916365    4.702120   -1.725374
H        -0.463520    3.684918   -2.140788
H        -0.625928    5.427110   -2.147455
H        -0.602176    5.963847    1.571057
H         0.802942    6.144180    0.527980
H        -0.758542    6.759211    0.010339
