78
0 1
O         1.080715   -0.367282   -1.677788
O        -0.602821   -1.851813    2.001390
O        -2.372041   -0.572605   -2.065677
O        -1.437314    3.358859    0.435313
O         3.843991    1.366655    0.151089
O         3.080575   -1.811175    2.985184
O         5.556608   -2.432854   -0.470745
N        -0.645459   -2.017832   -0.287467
N        -2.377931    0.346243    0.035331
N        -0.482493    2.191109   -1.281668
N         2.111346    2.765031   -0.207549
N         1.914823   -0.143674    1.932000
N         2.891722   -1.167654   -0.584880
C         1.571608   -1.226223   -0.940275
C         0.733312   -2.447110   -0.477319
C         0.804067   -3.631410   -1.501234
C         0.473563   -3.218783   -2.950196
C         2.148374   -4.381493   -1.433005
C        -1.143584   -1.637299    0.921376
C        -2.501880   -0.874355    0.852239
C        -3.699269   -1.787870    0.465692
C        -5.015359   -1.043450    0.524069
C        -5.578927   -0.488196   -0.632442
C        -6.768182    0.239426   -0.566032
C        -7.411931    0.425446    0.658619
C        -6.859926   -0.125133    1.817333
C        -5.672008   -0.853145    1.747914
C        -2.221240    0.390559   -1.310119
C        -1.760631    1.759601   -1.849174
C        -0.438150    2.992064   -0.184472
C         0.943049    3.570406    0.197223
C         1.183851    4.910316   -0.548667
C         1.880454    4.477621   -1.851095
C         2.795924    3.327249   -1.401658
C         2.745168    1.799000    0.513263
C         2.103410    1.325686    1.826087
C         2.948648    1.889808    2.993760
C         2.882651   -1.171510    1.966789
C         3.469877   -1.718950    0.639067
C         5.014296   -1.644410    0.586623
H         5.258282   -2.057293   -1.309979
H        -1.151138   -1.733142   -1.112222
H        -2.267000    1.213008    0.535373
H         0.327766    1.646772   -1.540494
H         1.324658   -0.310320    2.735035
H         3.310159   -0.293322   -0.865554
H         1.071469   -2.809479    0.487404
H         0.024643   -4.320566   -1.162318
H         0.394765   -4.105796   -3.578439
H         1.248751   -2.584238   -3.377282
H        -0.466493   -2.677838   -3.036193
H         2.991472   -3.752397   -1.713638
H         2.141474   -5.233747   -2.112021
H         2.345406   -4.770231   -0.433976
H        -2.669808   -0.526510    1.868191
H        -3.695623   -2.616444    1.176443
H        -3.541137   -2.213657   -0.519952
H        -5.084292   -0.628201   -1.583796
H        -7.191559    0.657748   -1.470320
H        -8.334683    0.988568    0.709746
H        -7.354924    0.006791    2.770897
H        -5.253771   -1.281727    2.651083
H        -2.500396    2.529237   -1.639050
H        -1.653346    1.657863   -2.924755
H         0.923588    3.736308    1.270453
H         0.262269    5.467635   -0.700400
H         1.848163    5.532702    0.053078
H         1.147015    4.127487   -2.576087
H         2.439814    5.285757   -2.318812
H         3.790457    3.672554   -1.116510
H         2.928726    2.555591   -2.157561
H         1.091303    1.713272    1.907415
H         3.969328    1.519327    2.935297
H         2.982740    2.979962    2.968089
H         2.527141    1.589252    3.951109
H         3.240226   -2.780359    0.688105
H         5.332321   -0.600964    0.530333
H         5.397485   -2.061520    1.514628
