87
0 1
O         4.777049   -4.092901    0.397898
O         1.268332   -0.159027    0.265849
O         0.986684    2.008372   -2.129741
O        -1.064304    2.497805    1.959856
O        -1.670187   -1.351769    1.202585
O         1.079382   -1.714905   -2.717430
N         2.178059   -2.996758   -1.222660
N         3.767260   -2.369389    1.471071
N         3.436300    0.213874   -0.193198
N         1.805134    2.668856   -0.091440
N        -1.084565    1.706050   -0.187723
N        -1.021821   -1.279614   -0.980101
N        -5.620013   -1.998645   -1.176113
C         2.416332   -3.833424   -0.047730
C         2.704133   -1.392957    1.688935
C         3.026760    0.983617   -1.408130
C         0.643015    3.375234    0.508582
C        -2.138341    0.710382    0.003650
C        -0.267403   -2.525086   -0.890795
C         3.759198   -3.452892    0.626244
C         2.445332   -0.402770    0.521772
C         2.813699   -0.703430    3.085169
C         4.049275    0.199160    3.262395
C         1.520149    0.066444    3.427090
C         1.821202    1.926940   -1.228759
C         4.331753    1.685505   -1.816999
C         5.397836    0.627817   -1.486557
C         4.908583    0.016232   -0.157725
C        -0.589163    2.462794    0.829903
C         0.268973    4.748446   -0.136430
C         1.520661    5.642045   -0.243162
C        -0.499772    4.714981   -1.470182
C        -1.577631   -0.734176    0.149906
C        -3.197487    0.816729   -1.127874
C        -4.495879   -1.341975   -1.651535
C        -4.316429   -0.166443   -0.961919
C        -5.743929    0.851414    0.982200
C        -6.871562    0.616325    1.761328
C        -7.652028   -0.543695    1.582481
C        -7.321810   -1.493689    0.619592
C        -6.188594   -1.254399   -0.159404
C        -5.384090   -0.088039    0.002576
C         1.045488   -2.361533   -1.675173
C        -1.066629   -3.714814   -1.469662
H         2.943611   -2.934762   -1.874652
H         4.674349   -2.189062    1.866561
H         2.494275    2.400527    0.587912
H        -0.598920    1.733639   -1.071931
H        -0.767355   -0.689581   -1.754232
H        -5.966419   -2.872921   -1.518250
H         2.509794   -4.883445   -0.326133
H         1.578899   -3.749933    0.635901
H         1.766060   -1.938709    1.726863
H         2.708736    0.283716   -2.180621
H         0.996897    3.628325    1.505173
H        -2.604900    0.922422    0.959790
H        -0.099925   -2.705924    0.166460
H         2.903961   -1.535995    3.790789
H         4.095887    0.572603    4.284389
H         4.994120   -0.312302    3.076387
H         4.007498    1.069566    2.607762
H         0.626212   -0.531829    3.264974
H         1.397639    0.965705    2.828434
H         1.535601    0.373687    4.471980
H         4.319397    1.980109   -2.864026
H         4.482911    2.588723   -1.222373
H         5.417286   -0.136905   -2.264434
H         6.404937    1.033678   -1.405555
H         5.172460   -1.033141   -0.081226
H         5.343632    0.534377    0.696986
H        -0.399152    5.197354    0.606492
H         2.223487    5.254450   -0.979906
H         2.049750    5.721734    0.707702
H         1.248328    6.651696   -0.549316
H         0.095928    4.299041   -2.276812
H        -1.411793    4.127350   -1.398402
H        -0.789483    5.728686   -1.749066
H        -3.579278    1.840229   -1.124002
H        -2.718910    0.682456   -2.100338
H        -3.904008   -1.767293   -2.443179
H        -5.151682    1.744395    1.132434
H        -7.154776    1.333090    2.520684
H        -8.523412   -0.700669    2.204380
H        -7.921352   -2.384572    0.483164
H        -1.272342   -3.561367   -2.527718
H        -2.012012   -3.803952   -0.939517
H        -0.523916   -4.654884   -1.363263
