102
0 1
N         3.346794    0.224790    1.366259
C         2.765412   -1.079966    1.031277
C         3.887814   -2.125560    0.683860
C         3.497952   -3.609475    0.721585
S         4.861158   -4.684909    0.069273
C         4.300160   -4.898807   -1.671932
C         2.028160   -1.615680    2.262405
O         2.559398   -1.542379    3.364556
N         0.897356   -2.382022    2.060976
C        -0.332033   -2.077694    1.310933
C        -0.452684   -2.748271   -0.107514
C         0.340168   -1.973704   -1.184407
O         1.455214   -2.332097   -1.561694
C        -1.473395   -2.577452    2.266539
O        -1.228954   -3.412563    3.127903
N        -2.729798   -2.013284    2.217450
C        -3.471480   -1.380413    1.119441
C        -4.880462   -0.943026    1.646223
C        -5.706994   -0.291940    0.582741
C        -5.726292    1.046414    0.256418
N        -6.522156    1.240301   -0.852854
C        -7.020379    0.025296   -1.284299
C        -7.854349   -0.287338   -2.358715
C        -8.189311   -1.625732   -2.544404
C        -7.708642   -2.626272   -1.675626
C        -6.881108   -2.309973   -0.603733
C        -6.522343   -0.969097   -0.391496
C        -2.787178   -0.148515    0.510424
O        -2.804179    0.013078   -0.707261
N        -2.236891    0.712742    1.399331
C        -1.712634    2.066757    1.133654
C        -0.379375    2.269205    1.891731
C         0.355548    3.569333    1.602778
C         1.743068    3.603386    1.788919
C         2.477905    4.758328    1.528353
C         1.828399    5.910199    1.082826
C         0.443535    5.895939    0.914607
C        -0.290702    4.737808    1.175522
C        -1.791304    2.470356   -0.373717
O        -2.769880    3.126671   -0.716207
N        -0.794621    2.209508   -1.267068
C         0.491862    1.522577   -1.250748
C         0.448391    0.288470   -2.217590
N        -0.260169   -0.820278   -1.596068
C         1.558398    2.579657   -1.673383
O         1.212700    3.594395   -2.265422
N         2.860498    2.371408   -1.324817
C         3.620113    1.158313   -0.967239
C         4.945414    1.219090   -1.773600
C         5.805725   -0.063178   -1.812037
C         5.196191   -1.126619   -2.749261
C         7.245337    0.277837   -2.249163
C         3.922865    1.173260    0.558566
O         4.609467    2.073360    1.028889
H         3.652351    0.285993    2.327457
H         2.103949   -0.975812    0.186764
H         4.708733   -1.959334    1.381227
H         4.255086   -1.884670   -0.306835
H         3.320193   -3.949327    1.739817
H         2.607296   -3.808285    0.135069
H         4.130996   -3.943438   -2.159761
H         5.098269   -5.426860   -2.189403
H         3.390610   -5.494396   -1.718987
H         0.671510   -2.922861    2.886554
H        -0.425735   -1.003090    1.186322
H        -0.082049   -3.767806   -0.053493
H        -1.502729   -2.797678   -0.396494
H        -3.320338   -2.462166    2.901858
H        -3.621522   -2.072984    0.290075
H        -4.738779   -0.276563    2.499471
H        -5.385421   -1.832588    2.031990
H        -5.204457    1.877323    0.697691
H        -6.636857    2.117232   -1.322721
H        -8.223226    0.480118   -3.026348
H        -8.830610   -1.901637   -3.370629
H        -7.989348   -3.656712   -1.848200
H        -6.520417   -3.089740    0.055380
H        -2.293378    0.455616    2.371272
H        -2.435784    2.758051    1.565464
H        -0.614001    2.214166    2.961398
H         0.290015    1.427463    1.717509
H         2.256792    2.720944    2.137713
H         3.550886    4.739331    1.656992
H         2.393658    6.807182    0.866513
H        -0.071141    6.782744    0.569012
H        -1.358791    4.759887    1.018959
H        -0.924482    2.750669   -2.108006
H         0.720150    1.163773   -0.254935
H        -0.044161    0.589844   -3.142180
H         1.440831   -0.055399   -2.487833
H        -1.225415   -0.636965   -1.356854
H         3.430478    3.178230   -1.520631
H         3.047455    0.286101   -1.256073
H         5.526110    2.040227   -1.349641
H         4.694734    1.503742   -2.798305
H         5.868149   -0.474622   -0.801123
H         5.763994   -2.055235   -2.709231
H         5.209617   -0.780017   -3.784341
H         4.162138   -1.370353   -2.508743
H         7.864704   -0.617674   -2.296400
H         7.262929    0.738540   -3.238801
H         7.720767    0.970643   -1.555119
