102
0 1
N        -2.494840   -0.647121    1.013431
C        -2.725279   -2.049390    0.583261
C        -4.128207   -2.576152    0.977979
C        -4.570677   -2.215105    2.402906
S        -3.307046   -2.701945    3.672143
C        -3.598189   -1.374845    4.914784
C        -2.446977   -2.410418   -0.899461
O        -3.365608   -2.514307   -1.706077
N        -1.177914   -2.920059   -1.240773
C         0.127973   -2.214720   -1.335801
C        -0.027629   -1.102317   -2.424063
C         1.247139   -0.360110   -2.779408
O         2.241918   -0.997372   -3.135301
C         0.702978   -1.685776    0.006148
O         0.141217   -1.808592    1.086796
N         1.892008   -1.042425   -0.153022
C         2.552490   -0.240473    0.873698
C         3.710321   -1.028267    1.578135
C         4.424556   -2.004382    0.690062
C         5.559650   -1.789381   -0.055475
N         5.874503   -2.931881   -0.770500
C         4.928825   -3.907884   -0.519062
C         4.801576   -5.203628   -1.022523
C         3.716361   -5.959733   -0.587492
C         2.785579   -5.435365    0.332682
C         2.918371   -4.145547    0.836876
C         3.998736   -3.354059    0.410159
C         3.083428    1.022959    0.141098
O         4.116536    0.982528   -0.517686
N         2.350566    2.192949    0.165172
C         1.248013    2.609222    1.032493
C         0.871116    4.094302    0.767851
C         2.044114    5.035388    0.951720
C         2.544353    5.307183    2.233699
C         3.652692    6.134559    2.404204
C         4.282588    6.704948    1.294452
C         3.791897    6.446616    0.015077
C         2.679100    5.618695   -0.152968
C         0.015308    1.676514    0.983301
O        -0.361127    1.195389    2.045552
N        -0.577324    1.291276   -0.205205
C        -0.818347    1.968027   -1.478755
C         0.400923    2.117196   -2.431105
N         1.329325    0.996056   -2.625262
C        -2.003065    1.300138   -2.280634
O        -1.978936    1.301834   -3.503933
N        -3.001546    0.627491   -1.604069
C        -3.767519    1.045983   -0.415884
C        -5.279401    0.752320   -0.611154
C        -6.085007    1.760839   -1.470909
C        -5.682563    1.800382   -2.959012
C        -7.591196    1.450515   -1.334248
C        -3.291868    0.485354    0.948018
O        -3.508884    1.169681    1.940106
H        -2.041050   -0.655156    1.915766
H        -1.980489   -2.589803    1.151847
H        -4.880482   -2.206982    0.281458
H        -4.123374   -3.661123    0.852066
H        -4.731061   -1.144881    2.504018
H        -5.515108   -2.712037    2.627768
H        -2.859820   -1.522943    5.699607
H        -4.593771   -1.445290    5.349505
H        -3.452943   -0.394595    4.465447
H        -1.316683   -3.385269   -2.128152
H         0.837112   -2.960005   -1.698821
H        -0.819940   -0.462555   -2.093074
H        -0.382715   -1.574356   -3.340787
H         2.429163   -1.201526   -0.989482
H         1.808776    0.005931    1.621784
H         4.406577   -0.314015    2.018406
H         3.258420   -1.566996    2.411574
H         6.153141   -0.898276   -0.150365
H         6.629316   -3.011137   -1.423071
H         5.515458   -5.604480   -1.730597
H         3.586899   -6.966268   -0.962756
H         1.953451   -6.048622    0.652590
H         2.191127   -3.756298    1.535566
H         2.867099    2.940222   -0.271647
H         1.551759    2.547908    2.078776
H         0.067649    4.340968    1.463410
H         0.459176    4.213914   -0.232942
H         2.062035    4.872753    3.100482
H         4.022790    6.336584    3.400739
H         5.143490    7.346230    1.428078
H         4.267769    6.888284   -0.850474
H         2.295417    5.437468   -1.150003
H        -1.181163    0.502351   -0.020954
H        -1.150467    2.996914   -1.293869
H         0.001972    2.450480   -3.388262
H         1.019655    2.920882   -2.045561
H         2.270263    1.297357   -2.821713
H        -3.534522    0.075554   -2.256308
H        -3.651635    2.122144   -0.283001
H        -5.394766   -0.259373   -1.010018
H        -5.723547    0.738589    0.384137
H        -5.911815    2.756796   -1.045972
H        -5.782921    0.817739   -3.424481
H        -4.661710    2.135100   -3.122553
H        -6.331327    2.480240   -3.511584
H        -7.830685    0.462689   -1.732242
H        -7.917515    1.472554   -0.294283
H        -8.193595    2.174638   -1.882293
