116
0 1
N        -3.028704   -1.496879    0.965023
C        -2.827571   -1.757071   -0.473041
C        -1.603292   -1.035220   -1.073057
N        -0.363590   -1.411731   -0.687860
C         0.078283   -2.247253    0.440421
C         1.627601   -2.287909    0.608780
N         2.446357   -2.218661   -0.488052
C         3.895575   -2.401012   -0.253616
C         4.772192   -1.419733   -1.055650
N         5.575222   -0.509147   -0.381641
C         5.330999    0.391263    0.779652
C         3.887157    0.964091    0.732399
N         3.669860    1.918818   -0.230651
C         2.348552    2.539524   -0.353548
C         1.359208    1.575149   -1.046677
N         0.056235    1.949812   -1.119138
C        -0.631432    3.040788   -0.428703
C        -1.532612    2.540312    0.736210
N        -2.428523    1.554330    0.417028
C        -3.399709    1.048600    1.382475
C        -3.207180   -0.423701    1.830087
C        -4.087334   -1.595561   -1.360841
C        -5.204878   -2.517065   -0.912877
C        -5.043985   -3.910153   -0.983118
C        -6.049726   -4.771911   -0.547735
C        -7.243489   -4.256400   -0.036667
C        -7.423211   -2.874748    0.022586
C        -6.412248   -2.015694   -0.414179
O        -1.769337   -0.144208   -1.927825
C        -0.463741   -3.705232    0.486675
O        -0.559194   -4.260681   -0.828492
O         2.033271   -2.392694    1.761121
C         2.146966   -2.773694   -1.832746
C         3.116329   -3.984112   -1.967614
C         4.123746   -3.840080   -0.790154
O         4.918096   -1.543969   -2.267830
C         5.790842   -0.057213    2.202127
C         7.336867    0.048375    2.356827
C         8.194893   -0.979856    1.597968
C         5.259410   -1.391066    2.746464
O         3.008403    0.644304    1.523634
C         4.540339    2.377522   -1.320766
C         4.114935    3.843825   -1.482285
C         2.588935    3.802933   -1.248253
O         1.756021    0.540719   -1.587654
C        -1.414309    3.909953   -1.443137
C        -2.130326    5.149400   -0.854013
C        -2.920901    5.870047   -1.964433
C        -1.156906    6.114499   -0.147453
O        -1.438831    3.048875    1.847486
C        -4.878885    1.329306    0.953990
C        -5.130860    2.831465    0.656771
C        -4.985440    3.800777    1.842111
C        -5.884918    0.773962    1.983941
O        -3.292645   -0.677813    3.025395
H        -3.065145   -2.333055    1.522395
H        -2.585569   -2.813269   -0.517120
H         0.373505   -0.858220   -1.117673
H        -0.242837   -1.783774    1.372708
H         4.077577   -2.321507    0.802744
H         6.180738   -0.089599   -1.068664
H         5.985715    1.235240    0.568844
H         1.989353    2.788175    0.642685
H        -0.519140    1.306776   -1.654296
H         0.110376    3.657948    0.060393
H        -2.474526    1.218493   -0.530180
H        -3.201849    1.593340    2.299191
H        -3.791240   -1.834028   -2.383680
H        -4.416267   -0.560914   -1.385718
H        -4.129651   -4.325929   -1.390212
H        -5.905314   -5.842727   -0.612899
H        -8.023942   -4.923995    0.303685
H        -8.346824   -2.462161    0.407119
H        -6.571413   -0.947697   -0.375799
H         0.214962   -4.270979    1.128907
H        -1.435108   -3.728359    0.988118
H        -0.636557   -5.220275   -0.755694
H         1.110409   -3.066640   -1.911587
H         2.357851   -2.013504   -2.577928
H         2.569503   -4.924462   -1.897146
H         3.619578   -3.964213   -2.930243
H         5.153263   -4.027717   -1.085914
H         3.880806   -4.534737    0.014120
H         5.378725    0.723465    2.849326
H         7.563310   -0.032675    3.423453
H         7.656267    1.056334    2.071660
H         9.252205   -0.823069    1.812779
H         7.958861   -2.002702    1.886881
H         8.068151   -0.915254    0.519559
H         5.585870   -1.517066    3.779487
H         5.642888   -2.247065    2.194615
H         4.176265   -1.428314    2.738485
H         4.355930    1.793589   -2.226266
H         5.594137    2.288575   -1.074723
H         4.383187    4.256977   -2.453771
H         4.604107    4.449516   -0.718566
H         2.062298    3.702199   -2.196289
H         2.216954    4.709791   -0.775930
H        -2.143273    3.280571   -1.960557
H        -0.705047    4.232691   -2.210309
H        -2.849388    4.808594   -0.105820
H        -3.638038    5.205018   -2.447071
H        -2.258162    6.254379   -2.742240
H        -3.478778    6.717087   -1.565364
H        -0.347945    6.425535   -0.812394
H        -1.673700    7.018101    0.175490
H        -0.716537    5.668426    0.741665
H        -5.052201    0.807426    0.009939
H        -4.471749    3.149223   -0.151645
H        -6.143557    2.912299    0.252124
H        -5.214840    4.818445    1.525710
H        -5.668759    3.559615    2.655151
H        -3.976300    3.810442    2.247347
H        -6.899736    1.065654    1.712487
H        -5.863797   -0.310883    2.038360
H        -5.689117    1.146170    2.987131
