116
0 1
N         4.020466    0.599596    0.500181
C         3.028306   -0.474050    0.532109
C         3.416923   -1.360267    1.732886
N         2.435525   -2.107066    2.361641
C         1.094933   -1.658158    2.788441
C         0.008156   -1.569653    1.690661
N        -0.156519   -2.625344    0.857167
C        -1.377306   -2.660984    0.023310
C        -2.591629   -2.783431    0.982025
N        -3.829987   -2.315620    0.612166
C        -4.410288   -1.718905   -0.610407
C        -3.833759   -0.310711   -0.908023
N        -4.486345    0.756393   -0.373912
C        -4.272666    2.134019   -0.898004
C        -3.095501    2.916272   -0.224626
N        -1.912272    2.272081   -0.234864
C        -0.690104    2.893397    0.264857
C         0.471998    2.101460   -0.371829
N         1.698647    2.693758   -0.314597
C         2.852906    2.171772   -1.053746
C         3.981455    1.854964   -0.040642
C         3.007917   -1.376856   -0.758206
C         4.317927   -2.053733   -1.077974
C         4.572193   -3.368217   -0.664385
C         5.790910   -3.986106   -0.942297
C         6.782040   -3.295481   -1.641635
C         6.540533   -1.987235   -2.064405
C         5.318235   -1.374986   -1.787739
O         4.593312   -1.510649    2.034654
C         1.171468   -0.345103    3.612249
O        -0.030255   -0.061563    4.308723
O        -0.746065   -0.590764    1.643473
C         0.474529   -3.960145    0.987953
C        -0.444482   -4.895535    0.181019
C        -1.159508   -3.951462   -0.801719
O        -2.463737   -3.330431    2.072981
C        -4.361550   -2.627484   -1.871679
C        -5.053166   -1.968014   -3.100741
C        -6.512963   -1.514942   -2.915928
C        -4.960076   -4.014401   -1.562810
O        -2.855585   -0.170172   -1.650398
C        -5.602365    0.718917    0.601479
C        -6.003938    2.196957    0.756474
C        -5.619768    2.806066   -0.603864
O        -3.258574    4.048117    0.231537
C        -0.675121    2.905377    1.822666
C         0.432280    3.712149    2.543322
C         0.477077    5.193220    2.109947
C         0.218646    3.614443    4.069916
O         0.293253    1.010761   -0.909324
C         3.336276    3.152162   -2.160241
C         2.162039    3.581897   -3.074314
C         2.530987    4.634763   -4.133533
C         4.483015    2.506011   -2.964636
O         4.821051    2.698414    0.257564
H         4.828514    0.425929    1.078004
H         2.029567   -0.062763    0.640285
H         2.879299   -2.698674    3.047594
H         0.735151   -2.431153    3.471383
H        -1.439883   -1.772855   -0.595489
H        -4.495849   -2.524434    1.336418
H        -5.459973   -1.613825   -0.352286
H        -4.052531    2.058729   -1.963118
H        -1.813147    1.370727   -0.682726
H        -0.663887    3.923074   -0.096417
H         1.797622    3.600668    0.103879
H         2.499510    1.265731   -1.531916
H         2.209862   -2.104975   -0.628164
H         2.690210   -0.748318   -1.587026
H         3.813101   -3.913034   -0.117596
H         5.965349   -5.002675   -0.614005
H         7.728846   -3.772560   -1.858486
H         7.299577   -1.444421   -2.612764
H         5.139996   -0.365299   -2.127980
H         1.953506   -0.463142    4.361749
H         1.479677    0.477053    2.956727
H        -0.714138    0.030967    3.626003
H         0.541713   -4.265200    2.030321
H         1.483976   -3.940303    0.582757
H         0.114137   -5.683592   -0.321559
H        -1.167806   -5.369083    0.841207
H        -2.079589   -4.376480   -1.190587
H        -0.522723   -3.717356   -1.655989
H        -3.316761   -2.752094   -2.154282
H        -5.010892   -2.690389   -3.919433
H        -4.455229   -1.119422   -3.429271
H        -6.921291   -1.163832   -3.862999
H        -7.163821   -2.316486   -2.567775
H        -6.605395   -0.686484   -2.213885
H        -4.444147   -4.517231   -0.747991
H        -4.898078   -4.660904   -2.437625
H        -6.011937   -3.954720   -1.281255
H        -5.284250    0.260529    1.537318
H        -6.441680    0.138896    0.210501
H        -7.058027    2.308674    1.004845
H        -5.424828    2.673218    1.546609
H        -6.346858    2.532658   -1.370726
H        -5.531755    3.887168   -0.575158
H        -0.653972    1.871421    2.155745
H        -1.639330    3.316090    2.122393
H         1.403867    3.256136    2.326807
H         1.214751    5.747996    2.689439
H        -0.490963    5.673217    2.259726
H         0.734208    5.334962    1.059205
H         1.025901    4.107581    4.611952
H        -0.714657    4.097052    4.366382
H         0.174021    2.580634    4.407246
H         3.736081    4.039570   -1.660729
H         1.356709    3.987649   -2.460660
H         1.740258    2.699677   -3.565367
H         2.989053    5.514557   -3.678854
H         3.226060    4.254252   -4.880221
H         1.642246    4.971013   -4.667150
H         4.137328    1.625154   -3.509536
H         4.892812    3.197596   -3.697318
H         5.307349    2.208885   -2.321928
