116
0 1
N         0.882137    1.335331   -0.132101
C         0.448039    1.935409    1.139214
C        -0.211069    3.309446    0.830542
N        -1.560080    3.341011    0.644899
C        -2.564654    2.285854    0.725280
C        -3.880342    2.944490    0.197451
N        -4.993254    2.177246    0.041749
C        -5.187864    0.738284    0.303464
C        -4.291637   -0.190222   -0.545785
N        -3.889949   -1.304518    0.128734
C        -3.053207   -2.295856   -0.522324
C        -1.653633   -1.710321   -0.856382
N        -1.001051   -2.372315   -1.854721
C         0.454592   -2.425018   -2.142539
C         1.429572   -2.019665   -1.008156
N         2.623856   -1.576529   -1.482900
C         3.710729   -1.016033   -0.661107
C         4.394920    0.028382   -1.592181
N         4.333046    1.358181   -1.276660
C         3.283934    2.018984   -0.491844
C         1.899125    1.559654   -1.020717
C         1.467865    2.075401    2.287241
C         2.105018    0.780159    2.758530
C         1.339254   -0.366376    3.012670
C         1.933382   -1.527952    3.501569
C         3.305354   -1.567604    3.754988
C         4.080534   -0.434143    3.509381
C         3.482531    0.727075    3.016391
O         0.467606    4.328139    0.721867
C        -2.703431    1.707572    2.189254
O        -2.602591    0.283538    2.278384
O        -3.900000    4.148469   -0.056269
C        -6.253154    2.837465   -0.377702
C        -7.334519    1.868079    0.107776
C        -6.671985    0.497181   -0.092753
O        -4.071601    0.003966   -1.735168
C        -2.897423   -3.591181    0.340345
C        -4.289511   -4.212331    0.627774
C        -4.240720   -5.658677    1.148553
C        -2.047475   -3.389005    1.612655
O        -1.172770   -0.812326   -0.160560
C        -1.692854   -2.749970   -3.118219
C        -0.699216   -2.344615   -4.252799
C         0.538180   -1.760463   -3.528082
O         1.186256   -2.233189    0.172322
C         4.796334   -2.024909   -0.206882
C         4.325547   -3.257856    0.610577
C         3.904224   -4.433017   -0.296792
C         5.449267   -3.715364    1.564115
O         5.006574   -0.362069   -2.581660
C         3.473445    3.565624   -0.520413
C         3.362873    4.177668   -1.943538
C         3.022695    5.678707   -1.926542
C         4.783807    3.963154    0.190020
O         1.756247    1.243342   -2.201514
H         0.140280    0.808884   -0.567724
H        -0.301942    1.241510    1.490089
H        -1.943993    4.237208    0.376341
H        -2.309514    1.468263    0.051612
H        -5.055065    0.528344    1.364142
H        -3.850175   -1.238303    1.130262
H        -3.563465   -2.583811   -1.436839
H         0.665516   -3.496505   -2.272328
H         2.728268   -1.422032   -2.467763
H         3.255429   -0.574439    0.220912
H         4.721288    1.908886   -2.024879
H         3.385232    1.690945    0.536474
H         2.222386    2.818048    2.046724
H         0.907705    2.517001    3.117728
H         0.272187   -0.361800    2.843813
H         1.322981   -2.403024    3.678970
H         3.763176   -2.469672    4.137356
H         5.144864   -0.447504    3.704762
H         4.092111    1.605821    2.847526
H        -1.942789    2.192324    2.806461
H        -3.663195    1.980356    2.628596
H        -1.987439   -0.052444    1.601206
H        -6.266403    2.955359   -1.463657
H        -6.318575    3.828870    0.059883
H        -7.552261    2.042002    1.163340
H        -8.268559    1.972059   -0.442399
H        -6.723000    0.208744   -1.142770
H        -7.115377   -0.304164    0.495280
H        -2.353671   -4.289376   -0.303195
H        -4.834407   -3.589592    1.341497
H        -4.881882   -4.191360   -0.291161
H        -3.699924   -6.312568    0.462923
H        -3.758752   -5.735531    2.121744
H        -5.246601   -6.063316    1.257562
H        -1.946552   -4.326651    2.154935
H        -1.043347   -3.047614    1.377024
H        -2.491777   -2.673348    2.305518
H        -1.910205   -3.819720   -3.144311
H        -2.626555   -2.205451   -3.202129
H        -0.425833   -3.218327   -4.843417
H        -1.147064   -1.624840   -4.934824
H         0.481011   -0.679331   -3.416650
H         1.456103   -1.994461   -4.065920
H         5.494131   -1.438147    0.397356
H         5.358970   -2.349533   -1.082758
H         3.466336   -2.967601    1.215008
H         3.520617   -5.266079    0.293448
H         4.753571   -4.806104   -0.873113
H         3.131801   -4.155762   -1.008030
H         5.719856   -2.931621    2.271260
H         6.354076   -3.985786    1.015526
H         5.149029   -4.590244    2.142614
H         2.641970    3.966801    0.057410
H         4.295623    4.029854   -2.498000
H         2.594332    3.654013   -2.510482
H         3.784448    6.274400   -1.424039
H         2.929946    6.066896   -2.940688
H         2.076779    5.854524   -1.415239
H         4.813836    3.590831    1.214381
H         4.888408    5.045145    0.242525
H         5.664192    3.573109   -0.320318
