97
0 1
O         2.858720    4.381859    1.022266
O         2.009947    1.506803   -2.265869
O         2.145299   -4.014920   -1.233406
O        -0.348511   -1.286154   -2.236289
O        -3.938152   -0.080646    1.896556
O        -1.430921    3.429685    2.678992
O         6.116883    1.632670   -0.572522
O        -9.672439   -1.087193   -0.981910
N         0.411041    3.351555    1.360602
N         3.647359    2.706175   -0.285219
N         2.068421   -0.479979   -1.194010
N         0.443647   -2.950992   -0.229145
N        -1.999491   -0.235066   -1.150101
N        -2.798794    1.705586    1.149680
C         1.236717    2.744600    0.330799
C         3.771158    1.285672   -0.639086
C         2.692454   -1.751095   -0.775395
C        -0.564543   -1.932770    0.097588
C        -3.296193   -0.218385   -0.428742
C        -1.746098    2.473860    0.476846
C         2.653679    3.340902    0.408038
C         2.569158    0.777841   -1.453044
C         5.094350    1.087284   -1.431248
C         5.119802    1.740978   -2.819251
C         1.700261   -2.953849   -0.810507
C         3.423948   -1.790857    0.614346
C         4.940490   -1.849848    0.538972
C         5.568929   -2.805738   -0.276987
C         6.959576   -2.882779   -0.339397
C         7.748879   -2.017446    0.423752
C         7.134155   -1.085012    1.258951
C         5.740953   -1.005900    1.316774
C        -0.970073   -1.144794   -1.182933
C        -0.218401   -1.050638    1.324892
C        -0.303124   -1.723811    2.732551
C         0.890693   -2.631182    3.086139
C        -1.634016   -2.461469    2.981332
C        -3.321963    0.455357    0.978312
C        -4.013177   -1.603234   -0.420083
C        -5.521867   -1.487175   -0.527194
C        -6.358290   -1.552898    0.592420
C        -7.740795   -1.426458    0.466655
C        -8.320469   -1.222743   -0.791676
C        -7.496959   -1.154876   -1.922675
C        -6.119790   -1.289360   -1.781985
C        -0.895996    3.101706    1.621714
C        -2.271370    3.645586   -0.433028
C        -2.822464    3.138337   -1.778416
C        -3.304325    4.538226    0.278961
H         6.980230    1.345133   -0.895260
H       -10.130572   -1.150538   -0.133009
H         0.904296    3.907546    2.041826
H         4.541471    3.148442   -0.140191
H         1.306625   -0.662219   -1.838230
H         0.056735   -3.872463   -0.348956
H        -2.063623    0.185023   -2.063394
H        -2.962713    2.054299    2.085606
H         1.260091    1.662192    0.451532
H         0.861588    2.939304   -0.673082
H         3.874147    0.706193    0.273257
H         3.415627   -2.035586   -1.537487
H        -1.445985   -2.510462    0.370579
H        -3.908438    0.440077   -1.042119
H        -1.150909    1.806200   -0.134527
H         5.234580    0.007442   -1.536825
H         6.103422    1.606629   -3.270059
H         4.915007    2.807119   -2.762946
H         4.388081    1.296654   -3.488906
H         3.091866   -2.685859    1.137416
H         3.094867   -0.961815    1.235738
H         4.967712   -3.500763   -0.848302
H         7.425543   -3.624142   -0.975389
H         8.828213   -2.078994    0.375335
H         7.731722   -0.415536    1.863597
H         5.280556   -0.275022    1.968553
H        -0.906313   -0.210783    1.332590
H         0.767555   -0.615818    1.178482
H        -0.275715   -0.880392    3.431080
H         0.784519   -3.019054    4.099457
H         1.834469   -2.091016    3.051714
H         0.970495   -3.486800    2.418027
H        -2.498373   -1.842729    2.755817
H        -1.709016   -3.382974    2.400401
H        -1.710268   -2.754691    4.028050
H        -3.738917   -2.160478    0.471717
H        -3.640499   -2.161836   -1.279754
H        -5.926752   -1.687093    1.572434
H        -8.365170   -1.482982    1.350822
H        -7.947417   -1.007052   -2.893857
H        -5.499919   -1.246626   -2.670228
H        -1.391098    4.256528   -0.657609
H        -2.088996    2.544755   -2.324004
H        -3.726930    2.545017   -1.646232
H        -3.091101    3.977066   -2.420000
H        -4.212781    3.981547    0.507575
H        -2.926275    4.947638    1.211529
H        -3.585262    5.372930   -0.362335
