36
0 1
H          8.57300       14.12800       -0.19500
C          8.48200       13.60200       -1.14300
H          9.45400       13.56700       -1.63400
H          7.76800       14.11300       -1.78700
C          8.01000       12.19000       -0.89100
O          8.69200       11.23800       -1.24700
N          6.82000       12.05300       -0.30600
H          6.31500       12.88700       -0.05800
C          6.22800       10.76000        0.07100
H          6.92700       10.24600        0.73300
C          4.94300       11.04600        0.85800
H          4.51200       10.10500        1.20300
H          5.16600       11.66800        1.72600
H          4.21700       11.55400        0.22000
C          5.95700        9.80000       -1.11200
O          5.66800        8.62800       -0.89800
N          6.05900       10.28500       -2.35300
H          6.27700       11.26400       -2.45100
C          5.95900        9.49600       -3.58600
H          5.10000        8.82800       -3.50200
C          5.73200       10.43800       -4.78400
H          6.63600       11.02000       -4.97000
H          5.54400        9.82200       -5.66500
C          4.54600       11.40100       -4.61900
H          4.24600       11.72900       -5.61500
H          3.70800       10.85700       -4.18200
S          4.87400       12.89400       -3.63100
C          3.24900       13.68800       -3.74300
H          3.26500       14.62800       -3.19000
H          3.01100       13.89000       -4.78800
H          2.48900       13.03200       -3.31800
C          7.19300        8.61000       -3.85100
O          7.16900        7.77400       -4.74600
N          8.29300        8.78000       -3.12400
H          8.32600        9.48800       -2.40300
H          9.08300        8.18600       -3.30900
