29
0 1
H          7.07200        2.83800       -1.28100
C          6.63500        3.03300       -0.30200
H          7.35900        3.55500        0.32100
H          6.35400        2.09000        0.16300
C          5.40700        3.89400       -0.47700
O          5.06400        4.26100       -1.59300
N          4.74900        4.23100        0.63100
H          5.10600        3.89400        1.51000
C          3.52000        5.03400        0.66900
H          2.86800        4.68600       -0.13400
C          2.80700        4.74300        1.99900
H          1.85100        5.26900        2.02500
H          2.62000        3.67300        2.09700
H          3.41900        5.08400        2.83600
C          3.75700        6.54500        0.41400
O          3.37300        7.38300        1.22700
N          4.41900        6.87800       -0.70100
H          4.68400        6.09900       -1.29500
C          4.81400        8.21400       -1.18300
H          5.37600        8.04900       -2.10400
C          3.55800        9.00000       -1.58400
H          3.85200        9.93600       -2.06100
H          2.96200        8.41800       -2.28700
H          2.95800        9.22700       -0.70200
C          5.76500        9.04000       -0.28200
O          6.61600        9.75800       -0.79100
N          5.68900        8.95000        1.03800
H          4.94500        8.40500        1.45300
H          6.31900        9.50200        1.59400
