35
0 1
H          5.96500        0.58000        4.63700
C          6.67700        1.23300        4.13400
H          7.12100        0.70600        3.29000
H          7.45900        1.53600        4.82700
C          5.95800        2.45800        3.62200
O          5.95200        2.71400        2.42600
N          5.35500        3.22200        4.53100
H          5.41400        2.95000        5.49700
C          4.64900        4.46800        4.22000
H          4.05100        4.31100        3.32100
C          3.68400        4.77100        5.37700
H          4.24200        4.92400        6.30200
H          3.12100        5.67800        5.15200
H          2.98500        3.94500        5.50600
C          5.62700        5.62700        3.91800
O          5.80300        6.53500        4.72900
N          6.28900        5.57600        2.75900
H          6.11500        4.78000        2.15200
C          7.30600        6.54900        2.31700
H          7.19300        7.45700        2.90800
C          8.74100        6.02500        2.55000
H          9.43300        6.79600        2.20800
C          9.02900        5.78900        4.03800
H          8.42800        4.96200        4.41500
H         10.08400        5.55300        4.17500
H          8.79200        6.68900        4.60600
C          9.06100        4.73800        1.77800
H          8.91900        4.89400        0.70800
H         10.09800        4.45200        1.95200
H          8.41000        3.92700        2.10400
C          7.10400        6.95100        0.85200
O          6.53600        6.21600        0.05400
N          7.57500        8.12700        0.46200
H          8.03800        8.73400        1.11700
H          7.44100        8.39200       -0.50000
