36
0 1
H          7.67800       -2.39000        3.59700
C          7.11500       -3.31900        3.51200
H          6.45100       -3.42800        4.36700
H          7.80700       -4.15800        3.47600
C          6.29800       -3.29400        2.24100
O          6.45100       -4.16400        1.39200
N          5.42100       -2.30300        2.11300
H          5.39900       -1.60100        2.83400
C          4.46800       -2.16400        1.00700
H          4.14600       -3.16500        0.71400
C          3.23200       -1.42300        1.54100
H          3.50300       -0.40900        1.83700
H          2.47100       -1.37100        0.76200
H          2.81900       -1.95500        2.40000
C          5.07600       -1.51400       -0.26000
O          4.56000       -0.51500       -0.76100
N          6.18100       -2.05800       -0.78300
H          6.56400       -2.88300       -0.33000
C          6.89500       -1.50600       -1.94700
H          6.17300       -0.93700       -2.53500
C          7.98000       -0.50600       -1.48900
H          8.26600        0.09400       -2.35300
H          7.54500        0.17600       -0.75600
C          9.27100       -1.10800       -0.89800
H          9.78600       -1.69400       -1.65900
H          9.93400       -0.29200       -0.61000
C          9.02700       -1.97500        0.33200
O          8.86700       -1.49300        1.43900
N          8.93800       -3.27600        0.17400
H          8.90100       -3.66400       -0.76300
H          8.60400       -3.81000        0.96000
C          7.45900       -2.59200       -2.87900
O          7.93900       -3.63300       -2.44100
N          7.45800       -2.35000       -4.18300
H          7.83400       -3.05600       -4.79600
H          7.07100       -1.49400       -4.54200
