38
0 1
H         12.30300        5.75000        8.07800
C         11.52600        6.31600        7.56500
H         10.55200        5.88400        7.79000
H         11.70600        6.29100        6.49200
C         11.56400        7.74700        8.04700
O         12.37600        8.08900        8.89600
N         10.66900        8.58100        7.52100
H         10.02900        8.21300        6.83700
C         10.54600       10.00600        7.85600
H         11.55300       10.42600        7.90200
C          9.80500       10.70200        6.70300
H         10.33000       10.52900        5.76300
H          8.78600       10.32000        6.62800
H          9.76600       11.77600        6.89000
C          9.90200       10.25800        9.24300
O          8.92300       10.99200        9.36500
N         10.43300        9.62400       10.29300
H         11.25800        9.06100       10.11100
C          9.91500        9.63500       11.67000
H          8.82700        9.58500       11.61800
C         10.41300        8.37500       12.41200
H         11.49700        8.44600       12.51600
H          9.98500        8.37400       13.41600
C         10.07600        7.02700       11.74200
H         10.53500        6.98200       10.75500
C         10.64200        5.88000       12.57900
H         11.72100        5.99700       12.67600
H         10.19000        5.88000       13.57100
H         10.43700        4.92800       12.08900
C          8.56900        6.80700       11.58900
H          8.15100        7.54700       10.90800
H          8.38100        5.81600       11.17600
H          8.08000        6.89000       12.56000
C         10.22800       10.94200       12.43700
O         10.66800       10.92900       13.58000
N         10.03400       12.09800       11.81800
H          9.63600       12.09800       10.88900
H         10.24300       12.94900       12.31100
