30
0 1
H          3.36100        3.45300        5.96900
C          4.18100        4.07400        5.61200
H          5.05400        3.45600        5.40700
H          4.43100        4.81500        6.37100
C          3.75800        4.78500        4.35000
O          3.72200        6.01200        4.32100
N          3.42500        4.01200        3.31400
H          3.46800        3.01500        3.44800
C          2.97200        4.48500        1.99900
H          3.67000        5.25000        1.65300
C          3.04600        3.30700        1.01700
H          2.36900        2.51100        1.33200
H          2.75300        3.64300        0.02100
H          4.06500        2.92000        0.97200
C          1.57200        5.14000        2.05900
O          0.57800        4.59800        1.57900
N          1.50400        6.30700        2.69900
H          2.37900        6.64900        3.07600
C          0.28600        6.98500        3.16600
H         -0.40000        6.22400        3.54000
C          0.64200        7.89700        4.35100
H          1.28800        8.70800        4.01100
H         -0.27400        8.32600        4.76100
O          1.30100        7.15800        5.36800
H          2.19700        6.93000        5.07500
C         -0.46700        7.74700        2.06100
O         -0.82100        8.91000        2.21100
N         -0.69300        7.12700        0.91200
H         -1.17800        7.62200        0.18200
H         -0.40800        6.16200        0.80700
