33
0 1
H         15.31300        0.59100       -3.49200
C         15.41600        0.13400       -4.47500
H         14.86200       -0.80200       -4.50100
H         16.46900       -0.04800       -4.68500
C         14.85200        1.07500       -5.51300
O         14.37600        2.15200       -5.17700
N         14.90800        0.67300       -6.78000
H         15.27500       -0.24100       -6.98100
C         14.29500        1.42800       -7.87200
H         14.58800        2.47100       -7.75400
C         14.86100        0.92400       -9.20500
H         14.60000       -0.12600       -9.34800
H         14.44200        1.50800      -10.02600
H         15.94600        1.03200       -9.21300
C         12.75000        1.32200       -7.83200
O         12.23200        0.22800       -7.58900
N         11.99800        2.40700       -8.11400
C         12.50000        3.75100       -8.37500
H         13.20600        3.75800       -9.20700
H         12.97600        4.14000       -7.47300
C         11.28000        4.60700       -8.71500
H         11.08900        4.57000       -9.78900
H         11.40300        5.63800       -8.38200
C         10.15500        3.89700       -7.96400
H          9.17200        4.13100       -8.37600
H         10.19200        4.17700       -6.91000
C         10.53200        2.41600       -8.11000
H         10.16400        1.87400       -7.23700
C          9.94200        1.74400       -9.36800
O          9.34700        2.38000      -10.22900
N         10.12200        0.43900       -9.51600
H         10.65700       -0.06800       -8.82300
H          9.74700       -0.00900      -10.33500
