30
0 1
H          0.76400       -1.97100       -3.76200
C          0.85000       -3.01800       -3.47500
H          1.79500       -3.42600       -3.82900
H          0.02500       -3.58100       -3.91100
C          0.78200       -3.13400       -1.97100
O         -0.10900       -3.79300       -1.45300
N          1.73200       -2.49200       -1.28700
H          2.40100       -1.98100       -1.83900
C          1.92300       -2.43000        0.17500
H          2.83200       -1.84900        0.34000
C          0.78000       -1.61900        0.80300
H          0.69800       -0.64700        0.31500
H         -0.16500       -2.15400        0.70000
H          0.98300       -1.46500        1.86400
C          2.16800       -3.76900        0.91200
O          3.03700       -3.82300        1.77800
N          1.45900       -4.84700        0.56800
H          0.74900       -4.71100       -0.14500
C          1.55400       -6.18500        1.17700
H          1.61600       -6.05500        2.25800
C          0.25800       -6.95700        0.88800
H         -0.59400       -6.38200        1.25300
H          0.15000       -7.10300       -0.18800
O          0.27500       -8.21300        1.53200
H          1.00900       -8.71300        1.14300
C          2.81500       -6.97000        0.75400
O          2.74500       -8.11100        0.30500
N          3.99400       -6.37300        0.85200
H          4.81800       -6.88000        0.57800
H          4.04200       -5.44000        1.24100
