35
0 1
H         12.67600        6.74100       -1.13400
C         11.68400        6.30700       -1.25300
H         11.71400        5.25000       -0.99700
H         11.35000        6.43200       -2.28100
C         10.72500        7.01900       -0.32600
O         11.12500        7.92500        0.39300
N          9.46200        6.60100       -0.34300
H          9.21700        5.82200       -0.93600
C          8.39300        7.14300        0.49600
H          8.81600        7.45100        1.45300
C          7.79800        8.38000       -0.19300
H          7.36800        8.10000       -1.15600
H          7.01900        8.81700        0.43300
H          8.57800        9.12600       -0.35100
C          7.31600        6.07800        0.77400
O          7.21400        5.08400        0.05500
N          6.49900        6.29300        1.80900
H          6.60800        7.14300        2.34600
C          5.40600        5.39600        2.21900
H          4.98300        4.94600        1.32100
C          5.95200        4.25000        3.10300
H          6.76600        3.76700        2.56000
C          6.51200        4.72900        4.45000
H          7.30200        5.46100        4.28600
H          5.72600        5.18200        5.05500
H          6.93400        3.88300        4.99300
C          4.89600        3.17200        3.37500
H          4.10700        3.55600        4.02100
H          4.46900        2.82600        2.43300
H          5.36700        2.32300        3.87100
C          4.29400        6.20100        2.90200
O          4.54800        7.23100        3.51500
N          3.04400        5.76900        2.79800
H          2.83700        4.92600        2.29000
H          2.32000        6.31000        3.24100
