33
0 1
H          8.86800       -9.64700       -8.93600
C          9.38500       -9.08200       -9.70800
H          9.00300       -9.36600      -10.68800
H         10.45500       -9.27900       -9.66400
C          9.14400       -7.60600       -9.49900
O          8.60500       -6.93800      -10.37300
N          9.54200       -7.09300       -8.33500
H         10.01600       -7.69500       -7.68500
C          9.47400       -5.66400       -8.02800
H          8.44400       -5.34500       -8.17200
C          9.82900       -5.46600       -6.54800
H          9.14400       -6.04000       -5.92200
H         10.85300       -5.79700       -6.36400
H          9.74600       -4.41200       -6.28500
C         10.40600       -4.83900       -8.95400
O         11.49200       -5.32100       -9.27800
N         10.04300       -3.59700       -9.34700
C         10.96000       -2.71000      -10.05100
H         10.76600       -2.76400      -11.12300
H         12.00400       -2.95200       -9.84800
C         10.64100       -1.31400       -9.53000
H         10.94100       -0.53800      -10.23500
H         11.11200       -1.16400       -8.55800
C          9.12500       -1.38400       -9.37000
H          8.65700       -1.18700      -10.33600
H          8.76600       -0.67000       -8.62700
C          8.85300       -2.83400       -8.93600
H          8.78500       -2.85700       -7.84800
C          7.50200       -3.30000       -9.50800
O          6.46500       -2.80100       -9.09500
N          7.46200       -4.23900      -10.44300
H          6.56100       -4.53300      -10.78300
H          8.29900       -4.71900      -10.74000
