38
0 1
H          3.00100        2.05700      -12.74100
C          2.27500        2.51000      -12.06900
H          1.27400        2.38600      -12.48100
H          2.49000        3.57000      -11.94800
C          2.34000        1.82600      -10.72500
O          1.35200        1.26400      -10.27000
N          3.50000        1.88700      -10.07500
H          4.25900        2.38100      -10.51400
C          3.76500        1.27700       -8.76600
H          3.32100        0.28100       -8.76600
C          5.28600        1.10600       -8.62300
H          5.67600        0.51900       -9.45500
H          5.77300        2.08200       -8.60400
H          5.50900        0.58400       -7.69100
C          3.11900        2.04500       -7.58400
O          3.79000        2.40500       -6.62000
N          1.81200        2.31500       -7.66300
H          1.32800        1.96200       -8.48200
C          1.02700        3.14700       -6.72800
H          1.63400        4.02400       -6.49900
C         -0.26000        3.66100       -7.42300
H         -0.77500        4.31300       -6.71500
C          0.10200        4.52800       -8.64400
H          0.49100        3.90900       -9.45300
H         -0.78100        5.05900       -8.99900
H          0.85200        5.26900       -8.36400
C         -1.22500        2.51200       -7.80300
H         -0.78100        1.90000       -8.58900
H         -1.38700        1.87300       -6.93500
C         -2.60100        2.99600       -8.27800
H         -2.51100        3.53700       -9.21900
H         -3.25000        2.13400       -8.43400
H         -3.04800        3.64400       -7.52300
C          0.74400        2.49600       -5.35300
O         -0.25200        2.78600       -4.70200
N          1.59200        1.59500       -4.87700
H          1.39800        1.18100       -3.98100
H          2.45900        1.43000       -5.36700
