40
0 1
H          0.42500        2.39400       -0.77600
C         -0.06900        3.35700       -0.89900
H         -0.83600        3.47300       -0.13500
H         -0.51700        3.41500       -1.88900
C          0.95500        4.45500       -0.74500
O          2.12600        4.17700       -0.51600
N          0.51400        5.70400       -0.87700
H         -0.47100        5.84800       -1.02100
C          1.34100        6.88300       -0.61800
H          2.34100        6.69800       -1.01600
C          0.74300        8.08000       -1.36700
H         -0.25500        8.29800       -0.98400
H          1.37700        8.95700       -1.22300
H          0.68300        7.85900       -2.43300
C          1.48100        7.16700        0.89100
O          0.56700        6.90300        1.67200
N          2.61100        7.75100        1.29300
H          3.32100        7.96200        0.60700
C          2.94000        8.08600        2.68200
H          2.02900        8.38900        3.20000
C          3.50600        6.84300        3.39400
H          3.81100        7.11400        4.40500
H          2.70300        6.11200        3.49400
C          4.67600        6.17600        2.68900
C          5.99400        6.62800        2.90300
H          6.18500        7.45000        3.57800
C          7.06700        6.01600        2.22600
H          8.08000        6.35700        2.37700
C          6.82600        4.95300        1.33100
O          7.86300        4.37200        0.67500
H          7.56200        3.68800        0.07700
C          5.50700        4.49900        1.11800
H          5.30800        3.69100        0.43100
C          4.43800        5.10900        1.80100
H          3.42700        4.76100        1.63100
C          3.92200        9.26800        2.74100
O          4.53800        9.64100        1.74800
N          4.08600        9.88600        3.90300
H          3.57900        9.58200        4.71800
H          4.72500       10.66400        3.93800
