39
0 1
H          7.08700       -5.65600      -17.48500
C          6.07700       -5.44200      -17.14200
H          5.44200       -6.31400      -17.28700
H          5.67200       -4.60100      -17.70300
C          6.10900       -5.08200      -15.67600
O          5.72300       -3.98200      -15.30200
N          6.58200       -6.00700      -14.84200
H          6.88700       -6.88200      -15.23400
C          6.67800       -5.85200      -13.38500
H          5.75600       -5.38500      -13.03400
C          6.75100       -7.25500      -12.76300
H          5.88300       -7.84300      -13.06300
H          7.66200       -7.76200      -13.08400
H          6.75900       -7.17200      -11.67500
C          7.83600       -4.92200      -12.94500
O          8.74500       -5.34400      -12.23200
N          7.80200       -3.66300      -13.39500
H          7.00800       -3.43500      -13.98600
C          8.74500       -2.55900      -13.12600
H          8.36900       -1.69800      -13.67900
C          8.70100       -2.16600      -11.63800
H          9.22500       -2.92600      -11.05700
H          9.24800       -1.23100      -11.51000
C          7.30300       -1.98900      -11.07000
C          6.73600       -2.99300      -10.26000
H          7.30200       -3.88500      -10.03100
C          5.43400       -2.83900       -9.75300
H          5.00200       -3.61000       -9.13000
C          4.69500       -1.68200      -10.05200
H          3.69400       -1.56300       -9.66200
C          5.25800       -0.67800      -10.86000
H          4.69000        0.21200      -11.09000
C          6.56100       -0.83100      -11.36800
H          6.99000       -0.05900      -11.99000
C         10.19700       -2.74200      -13.61700
O         10.83100       -1.77400      -14.01500
N         10.74800       -3.94700      -13.64200
H         11.69600       -4.03500      -13.96600
H         10.24000       -4.72800      -13.25000
