36
0 1
H          5.16900        5.47900        2.06500
C          4.25100        5.94900        2.41400
H          4.14200        5.80300        3.48700
H          3.39600        5.51400        1.89700
C          4.30100        7.42700        2.11400
O          3.41700        7.95300        1.45000
N          5.34800        8.09900        2.59300
H          6.03900        7.58900        3.11700
C          5.53000        9.55000        2.45100
H          4.63800       10.04500        2.83900
C          6.72400        9.96100        3.32200
H          6.84500       11.04500        3.28300
H          6.55200        9.66500        4.35700
H          7.63700        9.49000        2.95400
C          5.70400       10.03900        0.99400
O          5.63900       11.23800        0.73800
N          5.91300        9.12800        0.04000
H          5.94200        8.15300        0.31000
C          5.92800        9.40000       -1.40200
H          6.44600       10.34200       -1.58500
C          6.70100        8.26400       -2.08800
H          6.78500        8.48000       -3.15400
H          7.71000        8.21800       -1.67700
C          6.04500        6.91600       -1.90800
N          6.05600        6.15800       -0.73200
C          5.29600        5.08300       -0.98800
H          5.09900        4.28900       -0.27900
N          4.80600        5.13500       -2.23800
H          4.19100        4.45200       -2.65700
C          5.26300        6.28900       -2.83200
H          5.02800        6.66100       -3.82200
C          4.52300        9.54000       -2.02000
O          4.40000        9.84500       -3.20100
N          3.44800        9.29500       -1.27900
H          3.54800        9.00000       -0.31700
H          2.54200        9.39700       -1.70200
