36
0 1
H          0.61000        6.55400       -1.84400
C          1.22600        6.00100       -1.13800
H          1.30700        4.96300       -1.46000
H          0.78000        6.04000       -0.14600
C          2.60600        6.61200       -1.08900
O          3.59100        5.93400       -1.36700
N          2.68300        7.89200       -0.73100
H          1.83700        8.37400       -0.47900
C          3.95100        8.60100       -0.57200
H          4.53700        8.46700       -1.48200
C          3.66400       10.09900       -0.40800
H          3.06900       10.27000        0.49000
H          4.60500       10.64400       -0.31700
H          3.12300       10.47200       -1.27900
C          4.76000        8.03600        0.61300
O          4.30600        8.06400        1.75600
N          5.96600        7.53500        0.33600
H          6.27300        7.54300       -0.62300
C          6.85100        6.88800        1.31600
H          6.23400        6.31100        2.00700
C          7.78700        5.90100        0.58900
H          8.43600        6.45300       -0.09200
H          8.41600        5.40600        1.33000
C          7.03700        4.82200       -0.21600
H          6.49100        5.28500       -1.03700
H          7.76600        4.13800       -0.65100
C          6.07600        4.00700        0.64500
O          6.45300        3.37200        1.61300
N          4.79700        4.00000        0.34700
H          4.20900        3.45700        0.95100
H          4.43300        4.57500       -0.40600
C          7.61200        7.91600        2.17700
O          8.82500        8.06300        2.09200
N          6.89900        8.68600        2.98700
H          5.89300        8.58000        3.01100
H          7.37900        9.36700        3.55100
