26
0 1
H          3.10200        2.82100        1.00800
C          2.96000        3.76700        1.52900
H          3.69700        3.85700        2.32500
H          1.95500        3.80400        1.94600
C          3.13800        4.89900        0.54600
O          3.40800        4.66400       -0.62400
N          3.00300        6.13500        1.02400
H          2.79400        6.23900        2.00300
C          3.10700        7.36300        0.22600
H          2.56600        7.19900       -0.70800
C          2.38400        8.48400        0.98700
H          1.35300        8.19300        1.19500
H          2.89900        8.69300        1.92600
H          2.37500        9.39200        0.38100
C          4.56100        7.72700       -0.17100
O          5.02100        8.84200        0.06800
N          5.29800        6.78300       -0.76600
H          4.83900        5.89600       -0.94900
C          6.71800        6.90000       -1.13900
H          7.26700        7.30500       -0.28900
H          7.10900        5.90500       -1.35100
C          7.01800        7.79500       -2.35100
O          7.86800        7.46200       -3.16600
N          6.31700        8.90600       -2.52900
H          6.51600        9.47700       -3.33300
H          5.66000        9.19200       -1.81600
