40
0 1
H         10.43100       13.24100       -7.39700
C         10.65500       13.06200       -6.34700
H         10.93600       13.99900       -5.86800
H         11.47200       12.34900       -6.25700
C          9.43200       12.50700       -5.65800
O          8.93400       13.10000       -4.70700
N          8.94400       11.36100       -6.13100
H          9.42800       10.90200       -6.88400
C          7.81300       10.67100       -5.51200
H          6.95600       11.34700       -5.51800
C          7.45400        9.43700       -6.35000
H          8.29400        8.74100       -6.36700
H          6.59000        8.93600       -5.91100
H          7.20900        9.73600       -7.37000
C          8.12800       10.30100       -4.05000
O          9.16000        9.69300       -3.77200
N          7.23400       10.67700       -3.12900
H          6.41000       11.15600       -3.45300
C          7.38600       10.52300       -1.67100
H          6.51300       10.99900       -1.22600
C          7.31600        9.03800       -1.26600
H          8.26200        8.55700       -1.51800
H          7.20600        8.97500       -0.18200
C          6.18100        8.26200       -1.91200
C          4.87500        8.35700       -1.39300
H          4.68700        8.96600       -0.51900
C          3.81700        7.65800       -2.00700
H          2.81800        7.73100       -1.60700
C          4.06800        6.86200       -3.14600
O          3.05400        6.18600       -3.74700
H          2.23700        6.25200       -3.25400
C          5.37600        6.76700       -3.66500
H          5.55700        6.15100       -4.53300
C          6.43100        7.46400       -3.04600
H          7.43600        7.38900       -3.44100
C          8.59500       11.25800       -1.04600
O          8.88400       11.08400        0.13200
N          9.29600       12.12000       -1.77500
H          9.06800       12.27700       -2.74700
H         10.07800       12.58100       -1.34300
