36
0 1
H          8.06600       10.81800        7.63100
C          7.55400       11.37100        6.84500
H          7.53900       10.78400        5.92800
H          8.07000       12.31300        6.67000
C          6.13500       11.65200        7.28200
O          5.73000       11.23500        8.36100
N          5.37900       12.35800        6.44100
H          5.78100       12.62100        5.55700
C          4.03300       12.85300        6.75400
H          4.09500       13.45500        7.66300
C          3.59100       13.76700        5.60400
H          2.61600       14.19800        5.83600
H          4.30900       14.57800        5.47400
H          3.51400       13.19500        4.67800
C          2.97900       11.75600        7.02600
O          1.94100       12.04300        7.61400
N          3.23900       10.50600        6.63200
H          4.11500       10.33700        6.15000
C          2.40700        9.33900        6.95700
H          1.36500        9.63600        6.83100
C          2.69000        8.20800        5.94200
H          1.83900        7.52600        5.95400
H          2.74400        8.63600        4.93900
C          3.95800        7.36900        6.19900
H          3.81500        6.78200        7.10700
H          4.08800        6.66500        5.37700
C          5.23500        8.19400        6.32700
O          5.50000        9.11100        5.56600
N          6.05800        7.93300        7.31700
H          6.84300        8.55100        7.42200
H          5.84200        7.21800        7.98600
C          2.54700        8.85600        8.41900
O          1.90400        7.89300        8.81600
N          3.40800        9.45700        9.23400
H          3.97600       10.22600        8.90300
H          3.46600        9.13900       10.18600
