39
0 1
H         11.50400       12.26800        0.56300
C         11.43500       11.18300        0.62200
H         12.26100       10.78900        1.21000
H         11.47000       10.76100       -0.38200
C         10.12700       10.79700        1.27100
O          9.31100       10.11900        0.66100
N          9.92000       11.23500        2.51100
H         10.63400       11.80000        2.94100
C          8.70800       10.97000        3.29100
H          8.43200        9.92400        3.14800
C          9.04600       11.16300        4.77700
H          9.86400       10.50100        5.06300
H          9.33500       12.19900        4.96500
H          8.17200       10.92700        5.38500
C          7.50300       11.82100        2.82000
O          7.02700       12.69500        3.53900
N          7.01600       11.57800        1.59900
H          7.48300       10.86800        1.04600
C          5.95100       12.36100        0.94700
H          6.21600       13.41500        1.03100
C          5.92100       12.00500       -0.55100
H          5.25400       12.70400       -1.05800
H          6.91600       12.16100       -0.96900
C          5.46500       10.59000       -0.87100
C          4.09100       10.29400       -0.97100
H          3.35700       11.07500       -0.82800
C          3.66700        8.98300       -1.25300
H          2.61100        8.76200       -1.32600
C          4.61400        7.96300       -1.44500
H          4.28800        6.95600       -1.66400
C          5.98600        8.25600       -1.35900
H          6.71700        7.47500       -1.51400
C          6.41000        9.56600       -1.07700
H          7.46700        9.78400       -1.02500
C          4.54700       12.22600        1.58000
O          3.60600       12.88000        1.14400
N          4.35300       11.38600        2.58800
H          3.43100       11.32500        2.98500
H          5.13100       10.87600        2.96800
