43
0 1
H          9.96400       16.25600        2.07700
C          9.08700       15.68400        1.77800
H          8.22900       16.35000        1.68900
H          8.87600       14.91300        2.51500
C          9.34500       15.03900        0.43700
O          8.63200       15.30500       -0.52100
N         10.36400       14.18400        0.37400
H         10.88000       13.98500        1.21800
C         10.75400       13.44400       -0.82600
H          9.86000       13.23300       -1.41600
C         11.69300       14.31800       -1.67100
H         11.95900       13.79800       -2.59200
H         11.19100       15.25100       -1.93200
H         12.60100       14.54300       -1.11000
C         11.40800       12.09800       -0.46400
O         11.86100       11.89700        0.66200
N         11.48400       11.18700       -1.43500
H         11.14200       11.45000       -2.34800
C         12.03700        9.82600       -1.32100
H         11.68500        9.39200       -0.38500
C         11.46000        8.98600       -2.47500
H         11.87200        7.97700       -2.43300
H         10.38300        8.89300       -2.32600
C         11.68700        9.55800       -3.84300
C         12.73600        9.27300       -4.64500
H         13.52700        8.57200       -4.39300
N         12.66800       10.03900       -5.79200
H         13.35600        9.99500       -6.52900
C         11.57800       10.88300       -5.77400
C         11.10700       11.85900       -6.66400
H         11.63500       12.06100       -7.58400
C          9.93900       12.57100       -6.34000
H          9.56000       13.32800       -7.01400
C          9.25800       12.29400       -5.14100
H          8.35400       12.83900       -4.90200
C          9.73800       11.30900       -4.25600
H          9.19100       11.09500       -3.35000
C         10.91600       10.58400       -4.54600
C         13.58300        9.77300       -1.25800
O         14.22200        8.88300       -1.80800
N         14.22800       10.73100       -0.60700
H         15.23300       10.69300       -0.57000
H         13.70000       11.42500       -0.09700
