26
0 1
H          0.58000       11.43000      -16.60800
C          1.27000       11.57100      -17.43700
H          1.97900       10.74400      -17.46700
H          1.80900       12.50900      -17.31800
C          0.49600       11.59800      -18.73400
O          0.72100       10.76700      -19.60300
N         -0.41400       12.56100      -18.86300
H         -0.51900       13.23200      -18.11700
C         -1.24700       12.76000      -20.05000
H         -0.68100       12.45800      -20.93200
C         -2.49100       11.86600      -19.94100
H         -2.18700       10.82100      -19.85500
H         -3.07400       12.14300      -19.06200
H         -3.11100       11.97700      -20.83100
C         -1.63200       14.24200      -20.21700
O         -1.61400       15.00600      -19.25200
N         -2.01200       14.64000      -21.43600
H         -2.02500       13.95000      -22.17100
C         -2.39600       16.01400      -21.79600
H         -1.66600       16.70500      -21.37400
H         -2.37100       16.11900      -22.88100
C         -3.78500       16.44900      -21.30800
O         -4.57100       16.98000      -22.08000
N         -4.13600       16.19800      -20.05500
H         -5.05100       16.47700      -19.74600
H         -3.46100       15.78300      -19.42700
