33
0 1
H          4.66400        0.15600        0.44400
C          3.68300        0.17600        0.91800
H          3.10300       -0.68400        0.58700
H          3.16800        1.09800        0.65200
C          3.86100        0.11100        2.41500
O          4.98600        0.03500        2.90100
N          2.75200        0.13200        3.15400
H          1.86200        0.15100        2.68500
C          2.75900        0.00700        4.61100
H          3.36500        0.81500        5.02400
C          1.32500        0.17300        5.13000
H          0.68600       -0.61200        4.72300
H          1.32000        0.10200        6.21800
H          0.93300        1.14800        4.83800
C          3.38500       -1.33600        5.03500
O          2.82300       -2.40000        4.78200
N          4.56300       -1.27500        5.66200
H          4.94800       -0.36600        5.86700
C          5.45200       -2.42800        5.87500
H          4.91000       -3.35000        5.66200
C          6.65000       -2.35800        4.90900
H          7.20200       -1.43400        5.08400
C          7.61200       -3.53900        5.04900
H          8.37200       -3.47600        4.26900
H          8.11100       -3.50900        6.01700
H          7.06800       -4.47700        4.93900
O          6.20600       -2.37400        3.57400
H          5.80200       -1.51200        3.37500
C          5.93000       -2.47600        7.32500
O          6.29300       -1.45700        7.90100
N          5.95800       -3.65000        7.94200
H          5.65500       -4.48300        7.46400
H          6.27400       -3.67600        8.89700
