30
0 1
H          4.47300        4.40400        5.84300
C          4.16600        3.94300        4.90400
H          3.58200        4.65500        4.32300
H          3.57100        3.05700        5.11500
C          5.39900        3.54600        4.12900
O          6.51300        3.77000        4.58400
N          5.20100        2.98300        2.93700
H          4.25200        2.84100        2.63100
C          6.27400        2.43500        2.09400
H          6.80100        1.67200        2.66900
C          5.61800        1.75300        0.88600
H          5.08700        2.49000        0.28100
H          6.38700        1.28100        0.27300
H          4.92000        0.98500        1.22300
C          7.34400        3.45800        1.64200
O          8.40300        3.06200        1.16600
N          7.09100        4.76100        1.80000
H          6.19700        5.02600        2.17500
C          8.06300        5.82900        1.54500
H          8.57300        5.61900        0.60300
C          7.30700        7.16000        1.40900
H          6.87500        7.42900        2.37500
H          8.00900        7.94500        1.11900
S          5.97700        7.04000        0.17300
H          6.76500        6.93000       -0.90400
C          9.16400        5.94500        2.62300
O         10.09800        6.72000        2.46000
N          9.07500        5.23200        3.74100
H          9.80700        5.32200        4.42400
H          8.28800        4.61500        3.89500
