36
0 1
H         -6.15100        0.10300      -17.15600
C         -5.37000        0.13800      -16.40000
H         -5.59100       -0.56600      -15.60000
H         -5.30800        1.14500      -15.98900
C         -4.04300       -0.21600      -17.03000
O         -3.12500        0.59200      -17.00600
N         -3.95900       -1.42700      -17.58500
H         -4.79200       -1.99000      -17.53800
C         -2.79900       -2.04500      -18.25500
H         -3.10900       -3.05300      -18.53400
C         -2.52000       -1.30600      -19.57200
H         -2.17200       -0.29200      -19.36900
H         -1.74800       -1.83700      -20.13100
H         -3.42600       -1.26200      -20.17700
C         -1.51700       -2.24400      -17.41000
O         -0.86000       -3.27200      -17.55600
N         -1.16900       -1.31700      -16.51300
H         -1.73700       -0.47800      -16.47700
C         -0.00200       -1.38300      -15.62300
H          0.83700       -1.75500      -16.21200
C          0.35200        0.04600      -15.17100
H          0.45100        0.67800      -16.05500
H         -0.47100        0.44100      -14.57200
C          1.64900        0.17200      -14.35700
H          1.75200        1.22100      -14.08000
H          1.56500       -0.39300      -13.42900
S          3.17800       -0.30900      -15.21300
C          3.36700       -2.02700      -14.65900
H          4.31000       -2.42400      -15.03500
H          3.37400       -2.06200      -13.56900
H          2.55000       -2.63800      -15.03700
C         -0.21600       -2.37300      -14.45800
O         -0.34200       -2.00200      -13.29800
N         -0.29900       -3.66200      -14.75400
H         -0.26200       -3.94700      -15.72400
H         -0.45500       -4.31900      -14.00900
