39
0 1
H         14.25900       16.07100       -5.55800
C         13.83800       16.03100       -4.55500
H         13.02100       16.74500       -4.47200
H         14.61000       16.26200       -3.82400
C         13.31200       14.63700       -4.30100
O         13.40600       13.77800       -5.16700
N         12.75400       14.42000       -3.11300
H         12.68000       15.19000       -2.46400
C         12.16500       13.15000       -2.68700
H         11.72600       12.65500       -3.55500
C         13.27600       12.25000       -2.12400
H         12.86000       11.28600       -1.83000
H         14.03800       12.08500       -2.88600
H         13.73400       12.72300       -1.25400
C         11.04600       13.37900       -1.65500
O         10.97700       14.43500       -1.02600
N         10.17900       12.38100       -1.46500
H         10.30700       11.51900       -1.97700
C          9.06900       12.41100       -0.50700
H          9.37100       12.99900        0.36100
C          7.85600       13.09700       -1.15900
H          8.16100       14.07700       -1.53100
H          7.53500       12.50700       -2.01900
C          6.68200       13.29800       -0.22100
C          6.72700       14.31800        0.74800
H          7.58500       14.97400        0.80200
C          5.65700       14.48900        1.64400
H          5.69200       15.27600        2.38400
C          4.53900       13.64000        1.57400
H          3.71400       13.77400        2.26000
C          4.48900       12.62100        0.60600
H          3.62700       11.97100        0.55000
C          5.55900       12.45000       -0.29100
H          5.51800       11.66300       -1.03100
C          8.73400       10.99100       -0.01900
O          9.05300       10.00700       -0.67800
N          8.09200       10.85200        1.13400
H          7.79000       11.66500        1.64700
H          7.87300        9.92100        1.44700
