38
0 1
H          6.92600        1.60500       -2.17900
C          6.60800        2.64500       -2.24600
H          5.53900        2.68800       -2.44700
H          7.15700        3.14500       -3.04100
C          6.89700        3.33000       -0.93100
O          7.41200        2.70600       -0.01400
N          6.55900        4.61400       -0.84400
H          6.10300        5.05100       -1.63100
C          6.73400        5.44400        0.34900
H          6.60800        4.82000        1.23500
C          8.16000        6.01500        0.35400
H          8.88400        5.19900        0.34300
H          8.31300        6.64400       -0.52400
H          8.31900        6.61100        1.25300
C          5.67700        6.56200        0.40300
O          5.06800        6.90000       -0.61200
N          5.46900        7.14200        1.58800
H          6.03200        6.84800        2.37500
C          4.51800        8.22900        1.84200
H          4.50200        8.86900        0.95800
C          3.09200        7.66300        2.03700
H          2.39800        8.49300        1.89400
H          2.88700        6.94200        1.24400
C          2.76100        7.01800        3.40200
H          2.91300        7.75000        4.19500
C          1.28600        6.61200        3.41500
H          1.02500        6.20000        4.39000
H          0.65900        7.48400        3.22900
H          1.09700        5.86100        2.64600
C          3.58900        5.77100        3.71600
H          3.21800        5.30000        4.62700
H          3.52700        5.06000        2.89200
H          4.62700        6.05000        3.88700
C          4.97300        9.09600        3.02700
O          5.76300        8.66600        3.86000
N          4.47300       10.31900        3.13200
H          3.82400       10.66400        2.44500
H          4.76900       10.88600        3.91000
