30
0 1
H          4.42100        7.64000       -3.77600
C          5.13900        7.46100       -2.97800
H          5.81500        8.30900       -2.88500
H          5.71100        6.56000       -3.19900
C          4.39900        7.26300       -1.67700
O          4.50100        6.20900       -1.06200
N          3.65300        8.27900       -1.25000
H          3.58500        9.10200       -1.82500
C          2.80000        8.19100       -0.06600
H          3.38900        7.76200        0.74700
C          2.37200        9.60400        0.34800
H          1.76900        9.55400        1.25500
H          3.25300       10.21700        0.54400
H          1.78100       10.06300       -0.44600
C          1.58400        7.27500       -0.31100
O          0.93600        7.35500       -1.35500
N          1.24000        6.44200        0.67400
H          1.80300        6.42800        1.51200
C          0.12300        5.48500        0.63100
H          0.11600        5.01200       -0.35100
C          0.37500        4.38800        1.67400
H         -0.41800        3.64000        1.62100
H          1.33000        3.90200        1.46500
O          0.41100        4.95100        2.97100
H         -0.49000        5.25000        3.16400
C         -1.25200        6.15600        0.82200
O         -1.98900        5.85500        1.75700
N         -1.61000        7.10700       -0.02900
H         -2.50000        7.55900        0.09500
H         -0.97800        7.36200       -0.77700
