36
0 1
H          2.04800       15.19700       -1.79700
C          1.75500       16.08300       -1.23700
H          2.11600       16.00500       -0.21300
H          0.67300       16.18700       -1.23900
C          2.36800       17.30600       -1.87900
O          3.02500       18.08600       -1.20500
N          2.13300       17.47400       -3.17800
H          1.56600       16.77700       -3.64700
C          2.67400       18.57500       -3.99000
H          2.94100       19.40000       -3.32700
C          3.96200       18.08600       -4.67100
H          4.66800       17.73400       -3.91800
H          3.73300       17.27400       -5.36300
H          4.42000       18.90700       -5.22400
C          1.64100       19.14000       -4.99200
O          1.99100       19.77300       -5.98400
N          0.35600       18.86400       -4.75100
H          0.16600       18.30700       -3.93100
C         -0.71600       18.90800       -5.75400
H         -0.40200       19.53000       -6.59400
C         -0.92200       17.47300       -6.26900
H         -1.68400       17.47300       -7.04900
H          0.00700       17.12200       -6.72000
C         -1.32100       16.50100       -5.18200
N         -0.47500       15.99300       -4.18800
C         -1.24500       15.19900       -3.42800
H         -0.89200       14.63500       -2.57400
N         -2.51300       15.20400       -3.87300
H         -3.28200       14.69000       -3.46400
C         -2.58200       16.02500       -4.97500
H         -3.45700       16.27200       -5.56200
C         -2.02500       19.52400       -5.22500
O         -3.09500       19.31600       -5.78500
N         -1.98200       20.26700       -4.12800
H         -1.09800       20.44700       -3.68100
H         -2.84100       20.66500       -3.78700
