43
0 1
H          8.27500        8.15200        1.01500
C          7.25500        8.42400        1.28000
H          7.25500        8.96100        2.22800
H          6.64300        7.52900        1.36500
C          6.68300        9.32200        0.21000
O          6.35800       10.47300        0.47300
N          6.56400        8.79400       -1.00600
H          6.82700        7.83000       -1.12600
C          6.09300        9.51400       -2.19500
H          6.53100       10.51300       -2.17500
C          6.64200        8.79100       -3.43500
H          6.37600        9.35000       -4.33300
H          7.72900        8.72100       -3.37600
H          6.21500        7.78900       -3.50400
C          4.55700        9.71200       -2.22800
O          3.90300        9.41000       -3.22500
N          3.96700       10.19600       -1.13200
H          4.57200       10.42800       -0.35000
C          2.51500       10.29400       -0.90500
H          2.07100        9.36700       -1.26800
C          2.24200       10.36800        0.60700
H          2.46400       11.38300        0.94300
H          1.17900       10.19500        0.77800
C          3.01500        9.41300        1.47100
C          3.81500        9.77100        2.50000
H          4.00000       10.79400        2.80900
N          4.34900        8.64500        3.09200
H          4.96200        8.67800        3.89300
C          3.93500        7.49400        2.45700
C          4.21500        6.13600        2.66600
H          4.86900        5.83000        3.46700
C          3.62600        5.18100        1.82000
H          3.82500        4.12800        1.96700
C          2.76900        5.59600        0.78500
H          2.31400        4.85800        0.13800
C          2.49400        6.96400        0.58700
H          1.83100        7.26600       -0.21000
C          3.07000        7.95100        1.41600
C          1.80300       11.42500       -1.68400
O          0.86600       12.04600       -1.19400
N          2.23400       11.74300       -2.89600
H          1.76800       12.48300       -3.39300
H          2.95800       11.18300       -3.32300
