33
0 1
H          4.36400        1.43300        0.51900
C          4.15700        1.99400       -0.39000
H          3.13700        1.79500       -0.71800
H          4.85400        1.70300       -1.17500
C          4.30500        3.47100       -0.11500
O          3.35500        4.22900       -0.28300
N          5.49900        3.88400        0.30800
H          6.24300        3.21200        0.38300
C          5.81800        5.29300        0.53700
H          5.10400        5.69300        1.25900
C          7.22200        5.39700        1.14500
H          7.26600        4.83500        2.07900
H          7.96100        5.00100        0.44600
H          7.45500        6.44200        1.35100
C          5.69200        6.10700       -0.76600
O          6.25000        5.73400       -1.79600
N          4.94400        7.21000       -0.71800
H          4.55100        7.50000        0.16600
C          4.60100        8.03600       -1.87700
H          5.46300        8.08000       -2.54400
C          3.43300        7.36700       -2.63300
H          3.30200        7.85900       -3.59600
H          3.66900        6.32100       -2.83000
C          2.11100        7.45000       -1.89200
O          1.35800        8.39100       -2.05700
N          1.77900        6.49000       -1.06200
H          0.89700        6.58900       -0.59700
H          2.38800        5.69200       -0.90100
C          4.27700        9.48000       -1.43700
O          4.25100        9.78700       -0.24900
N          4.04100       10.38700       -2.37500
H          3.79800       11.31800       -2.07900
H          4.02400       10.12400       -3.34500
