38
0 1
H         -5.19400       -2.22800       -8.86700
C         -4.89900       -1.49200       -8.12200
H         -4.24900       -1.95900       -7.38300
H         -5.78100       -1.08700       -7.63000
C         -4.14500       -0.37100       -8.79900
O         -2.99000       -0.12700       -8.47800
N         -4.80500        0.31100       -9.73100
H         -5.76900        0.07500       -9.91300
C         -4.25900        1.44400      -10.47900
H         -3.57000        1.99300       -9.83600
C         -3.47700        0.91100      -11.68900
H         -2.67700        0.25200      -11.35000
H         -4.14500        0.35600      -12.34900
H         -3.03600        1.74100      -12.24200
C         -5.37700        2.41100      -10.91000
O         -6.55100        2.03900      -10.94500
N         -5.01200        3.64900      -11.25300
H         -4.03100        3.89000      -11.23400
C         -5.93300        4.70400      -11.70200
H         -6.72300        4.22300      -12.27800
C         -6.58100        5.40300      -10.47700
H         -7.04600        4.62900       -9.86300
C         -5.54100        6.12100       -9.59600
H         -5.06000        6.92900      -10.14900
H         -6.02600        6.53700       -8.71300
H         -4.77700        5.41900       -9.26100
C         -7.68600        6.42000      -10.83800
H         -8.07300        6.85100       -9.91300
H         -7.27100        7.23500      -11.43000
C         -8.87400        5.80100      -11.58700
H         -8.56900        5.45800      -12.57400
H         -9.27500        4.96200      -11.01700
H         -9.65400        6.55300      -11.70600
C         -5.20100        5.67400      -12.64200
O         -3.99600        5.87200      -12.53200
N         -5.89800        6.28400      -13.59100
H         -5.40900        6.91200      -14.20800
H         -6.88600        6.11700      -13.68300
