29
0 1
H         10.21300        5.77000        0.34100
C         10.47400        6.20100        1.30500
H         10.34000        7.28000        1.28000
H         11.51100        5.96600        1.54300
C          9.58300        5.61200        2.37400
O         10.07200        4.99100        3.30800
N          8.27400        5.80400        2.22800
H          7.94400        6.29400        1.41100
C          7.24900        5.29300        3.13900
H          7.58300        4.33700        3.54600
C          7.07800        6.28300        4.30200
H          8.02800        6.40800        4.82300
H          6.74600        7.25000        3.92200
H          6.34000        5.90300        5.00900
C          5.92000        5.05600        2.39800
O          5.69800        5.60400        1.31800
N          5.02900        4.25700        2.98900
H          5.24700        3.87200        3.89700
C          3.70600        3.93800        2.45200
H          3.32800        4.80100        1.90100
C          3.83600        2.75600        1.48000
H          4.21300        1.87900        2.00800
H          2.86400        2.52100        1.04600
H          4.52600        3.01400        0.67500
C          2.71200        3.63200        3.58900
O          3.10500        3.33400        4.71200
N          1.41400        3.68800        3.31900
H          1.09600        3.92600        2.39400
H          0.76800        3.48200        4.06300
