33
0 1
H          0.18500        2.93000       -6.76100
C          0.91800        2.27100       -6.30000
H          0.54500        1.24800       -6.30600
H          1.10700        2.58000       -5.27200
C          2.21000        2.32500       -7.07800
O          2.70900        1.29900       -7.52200
N          2.77700        3.52300       -7.22100
H          2.31100        4.32100       -6.82200
C          4.03600        3.74800       -7.94600
H          3.92700        3.35200       -8.95700
C          4.26400        5.26200       -8.04200
H          4.38400        5.68800       -7.04500
H          5.16800        5.45600       -8.62100
H          3.41900        5.73500       -8.54300
C          5.25800        3.03600       -7.31800
O          6.28900        2.88400       -7.96600
N          5.13900        2.57800       -6.06900
H          4.25700        2.73500       -5.59900
C          6.11100        1.73400       -5.37200
H          7.11600        2.08900       -5.60700
C          5.86400        1.90100       -3.86300
H          6.61500        1.34400       -3.30300
H          5.95100        2.95300       -3.59000
C          4.47900        1.41600       -3.47700
O          3.49400        2.12200       -3.62100
N          4.35200        0.18400       -3.04700
H          3.42300       -0.13000       -2.83600
H          5.15200       -0.42900       -3.05000
C          6.05700        0.24000       -5.77800
O          6.70600       -0.58800       -5.14800
N          5.24900       -0.15500       -6.75400
H          5.22100       -1.13300       -6.98900
H          4.64700        0.50800       -7.22300
