39
0 1
H         10.41600        5.70200        1.57600
C          9.78400        6.58400        1.49200
H         10.40500        7.47900        1.49700
H          9.08400        6.62200        2.32400
C          9.01500        6.52900        0.19400
O          9.16200        7.40400       -0.65000
N          8.18800        5.49900        0.03500
H          8.11200        4.83900        0.79100
C          7.40100        5.22500       -1.17400
H          8.04500        5.41000       -2.03600
C          7.04400        3.73100       -1.17700
H          7.95000        3.12900       -1.10000
H          6.38100        3.50300       -0.34100
H          6.53500        3.47700       -2.10800
C          6.17000        6.15100       -1.34700
O          5.06500        5.68800       -1.62600
N          6.34400        7.46300       -1.16300
H          7.28800        7.77500       -0.96100
C          5.28500        8.48600       -1.17100
H          4.43300        8.07700       -0.62800
C          5.77800        9.72100       -0.39600
H          6.56400       10.20500       -0.97700
H          4.95400       10.43100       -0.30700
C          6.29800        9.43200        1.00300
C          5.42000        8.96700        2.00100
H          4.37500        8.81500        1.77200
C          5.89700        8.70500        3.29800
H          5.21800        8.35200        4.06200
C          7.25200        8.91600        3.60500
H          7.61600        8.72600        4.60500
C          8.13100        9.38400        2.61300
H          9.17200        9.55400        2.84800
C          7.65700        9.63600        1.31300
H          8.33900        9.99000        0.55300
C          4.75300        8.84400       -2.58000
O          4.49600       10.00000       -2.89400
N          4.59700        7.87500       -3.47100
H          4.25700        8.11400       -4.38600
H          4.75400        6.91700       -3.19000
