26
0 1
H          3.18500        3.82800        4.81100
C          4.08900        3.22400        4.75000
H          4.25600        2.72400        5.70200
H          4.93700        3.86300        4.51100
C          3.91600        2.19100        3.66200
O          2.87200        2.13300        3.02700
N          4.93700        1.36000        3.45500
H          5.75500        1.47100        4.03000
C          4.97500        0.31200        2.42800
H          4.56800        0.73300        1.50700
C          6.44800       -0.03700        2.16300
H          6.89700       -0.47400        3.05600
H          6.51200       -0.75900        1.34800
H          7.00000        0.86000        1.87900
C          4.10100       -0.92400        2.76500
O          4.58100       -2.05700        2.76300
N          2.82700       -0.70900        3.10600
H          2.50900        0.25500        3.09100
C          1.83600       -1.74100        3.45100
H          0.83900       -1.30200        3.41300
H          1.88600       -2.53500        2.70500
C          2.01900       -2.38700        4.83200
O          1.05900       -2.54400        5.57400
N          3.23600       -2.73200        5.22800
H          4.00900       -2.63000        4.58400
H          3.34700       -3.15000        6.13600
