33
0 1
H         10.12700       -2.77700       -5.03800
C          9.78000       -2.01800       -5.73800
H          8.77400       -2.26400       -6.07400
H         10.45000       -1.96700       -6.59400
C          9.75000       -0.67700       -5.04400
O          8.69700       -0.06200       -4.94100
N         10.91000       -0.22300       -4.57700
H         11.74400       -0.76900       -4.73600
C         11.09100        1.05800       -3.89300
H         10.37900        1.77900       -4.29800
C         10.79300        0.86900       -2.39800
H         11.49100        0.15200       -1.96600
H         10.88900        1.82200       -1.87500
H          9.77400        0.50200       -2.26900
C         12.50900        1.61200       -4.12200
O         13.41700        0.87500       -4.50700
N         12.70200        2.91100       -3.87700
H         11.92800        3.45800       -3.52400
C         13.98900        3.60500       -3.97500
H         14.78100        2.92700       -3.64600
C         14.23600        3.98100       -5.45200
H         14.05500        3.10900       -6.08000
H         13.53800        4.76500       -5.74300
C         15.65400        4.44700       -5.73800
O         16.56200        4.33500       -4.93400
N         15.89300        5.00300       -6.90200
H         16.84200        5.29000       -7.06700
H         15.16600        5.09500       -7.58500
C         13.99300        4.83300       -3.03900
O         12.93800        5.32700       -2.65200
N         15.15500        5.35000       -2.66900
H         15.15600        6.15000       -2.05900
H         16.01200        4.97300       -3.05500
