33
0 1
H          9.16700        1.56200        0.12500
C          9.39100        2.06000        1.06600
H         10.34400        1.69900        1.45200
H          8.60400        1.86000        1.79100
C          9.49200        3.54900        0.83300
O         10.53400        4.14000        1.07800
N          8.40200        4.15200        0.36400
H          7.56800        3.60200        0.22100
C          8.29500        5.58600        0.09200
H          8.92000        6.12900        0.80300
C          8.81900        5.86400       -1.32500
H          9.85600        5.53100       -1.40600
H          8.21200        5.33100       -2.05800
H          8.77900        6.93300       -1.53400
C          6.84600        6.07600        0.26500
O          5.90400        5.28300        0.25100
N          6.65800        7.38900        0.41900
H          7.45800        8.00700        0.38100
C          5.33800        8.03400        0.52000
H          4.66700        7.54900       -0.18900
C          4.74700        7.83800        1.92900
H          4.85100        6.79100        2.21600
C          5.40000        8.69900        3.01100
H          4.97600        8.43900        3.98100
H          6.47300        8.51400        3.03600
H          5.21900        9.75700        2.82200
O          3.37200        8.14400        1.90800
H          2.89900        7.32900        1.71600
C          5.42500        9.51500        0.12300
O          6.51300       10.04800       -0.07100
N          4.30200       10.20400       -0.02300
H          3.42300        9.77400        0.22100
H          4.36500       11.17500       -0.28100
