40
1 1
H          5.02400       12.35200       14.79700
C          5.58300       13.24500       14.52200
H          5.71700       13.87000       15.40400
H          5.04000       13.80400       13.76200
C          6.93900       12.84700       13.98900
O          7.96100       13.23700       14.54300
N          6.96200       12.07600       12.89700
H          6.07100       11.81600       12.50200
C          8.18800       11.56100       12.25200
H          8.85900       11.24000       13.05200
C          7.83100       10.31300       11.41100
H          7.23900        9.63800       12.03100
H          7.21000       10.60800       10.56300
C          9.07400        9.53700       10.92700
H          9.96900        9.98600       11.36200
H          9.01900        8.51100       11.29400
C          9.21000        9.49900        9.39300
H          8.54000        8.73200        8.99900
H          8.89800       10.45300        8.96500
N         10.60000        9.20900        8.97900
H         10.80800        8.26200        8.71100
C         11.60300       10.07400        8.98900
N         12.81900        9.69000        8.72200
H         13.55100       10.37500        8.71600
H         13.01600        8.73300        8.49600
N         11.42700       11.32800        9.27700
H         12.18300       11.94900        9.52100
H         10.49400       11.67300        9.47900
C          8.95500       12.65000       11.47400
O          9.12300       12.54600       10.26000
N          9.40800       13.69400       12.16700
H          9.18700       13.70600       13.15900
C         10.14500       14.83600       11.61100
H          9.65800       15.17000       10.69400
H         10.09400       15.65600       12.32800
C         11.62500       14.56400       11.29100
O         12.04200       13.44500       11.00000
N         12.45200       15.59900       11.32300
H         12.11400       16.51800       11.56000
H         13.42700       15.44100       11.12500
