52
1 1
H          4.55200        4.46300        3.32500
C          5.21500        4.15000        4.12800
H          5.12300        3.07900        4.29700
H          4.95300        4.68300        5.04200
C          6.64300        4.48500        3.76300
O          7.29700        5.25400        4.45600
N          7.14300        3.90500        2.66700
H          6.54100        3.29000        2.14500
C          8.50300        4.18600        2.17600
H          9.16800        4.06100        3.03300
C          8.96300        3.16600        1.11000
H          9.90600        3.51300        0.68500
H          9.18800        2.23600        1.63500
C          8.00300        2.79800       -0.04400
H          8.51100        2.06000       -0.66500
H          7.12200        2.30800        0.37300
C          7.52700        3.93600       -0.96200
H          6.98800        3.50900       -1.80900
H          6.81100        4.55100       -0.41500
N          8.63500        4.78900       -1.43700
H          8.81000        5.62600       -0.88900
C          9.41300        4.61200       -2.48800
N          9.25500        3.62100       -3.32000
H          9.85800        3.52200       -4.11400
H          8.49600        2.98300       -3.16900
N         10.38500        5.44400       -2.71300
H         10.99400        5.34600       -3.50000
H         10.53400        6.18800       -2.03300
C          8.66900        5.65100        1.74600
O          7.82800        6.19500        1.03700
N          9.78900        6.27000        2.12200
H         10.42900        5.76500        2.71300
C         10.07400        7.68400        1.84300
H          9.25500        8.27700        2.25500
C         11.37900        8.10400        2.55100
H         12.20500        7.54500        2.10800
H         11.55500        9.16300        2.35400
C         11.40700        7.88700        4.07800
H         11.29700        6.82400        4.29500
C         12.75300        8.35000        4.63400
H         12.79400        8.15900        5.70600
H         13.56300        7.80100        4.15400
H         12.88800        9.41800        4.45900
C         10.29900        8.65500        4.80000
H         10.35300        9.71700        4.55900
H          9.32200        8.26300        4.51900
H         10.40900        8.53000        5.87800
C         10.13000        8.00300        0.33500
O         10.35800        7.13300       -0.50800
N          9.93500        9.26300       -0.03100
H          9.74400        9.96700        0.66300
H          9.96800        9.49600       -1.01000
