44
1 1
H          7.96800        6.28700       -8.79000
C          7.69600        6.45700       -7.74900
H          6.66000        6.78700       -7.68800
H          8.34400        7.22400       -7.32700
C          7.86700        5.17700       -6.96600
O          8.65300        5.12600       -6.02200
N          7.14000        4.12300       -7.35300
H          6.53300        4.23900       -8.15200
C          7.19200        2.80200       -6.69800
H          7.25600        2.99800       -5.62900
C          5.88500        2.02100       -6.94800
H          5.04400        2.66900       -6.69500
H          5.81100        1.78900       -8.01200
C          5.72300        0.70600       -6.15100
H          4.74100        0.30100       -6.40100
H          6.45700       -0.03200       -6.47500
C          5.78900        0.84600       -4.61900
H          5.19100        1.71100       -4.32700
H          5.33500       -0.04500       -4.18000
N          7.17200        0.96300       -4.10300
H          7.90900        0.50400       -4.63100
C          7.56700        1.58500       -3.00700
N          8.83200        1.64000       -2.71800
H          9.17400        2.12800       -1.91400
H          9.48600        1.19900       -3.36100
N          6.73500        2.16800       -2.18900
H          7.07500        2.62700       -1.36500
H          5.75200        2.11100       -2.37600
C          8.46500        2.02000       -7.05800
O          8.42400        0.96900       -7.68400
N          9.60500        2.53500       -6.61400
H          9.55100        3.43800       -6.16000
C         10.88800        1.83400       -6.59300
H         11.16000        1.57100       -7.61700
C         11.94700        2.79700       -6.02900
H         12.89800        2.27200       -5.92200
H         12.09400        3.63000       -6.72100
S         11.43900        3.45200       -4.40600
H         10.66100        4.45200       -4.85100
C         10.81300        0.52100       -5.78000
O          9.96800        0.35800       -4.89700
N         11.70400       -0.42600       -6.04200
H         12.39200       -0.29800       -6.76700
H         11.65900       -1.28600       -5.52000
