44
1 1
H         -8.44600        2.93600        4.01900
C         -8.29200        2.51900        3.02500
H         -8.91800        3.03800        2.30200
H         -8.54800        1.46000        3.03300
C         -6.84000        2.66700        2.63600
O         -6.16200        1.67800        2.39000
N         -6.35500        3.91000        2.57200
H         -6.97400        4.67200        2.81600
C         -4.95100        4.24700        2.27300
H         -4.31600        3.52000        2.78200
C         -4.68000        4.14000        0.75900
H         -3.63700        4.40700        0.58500
H         -4.79700        3.10100        0.44500
C         -5.60300        5.01900       -0.11000
H         -6.53600        4.48200       -0.28900
H         -5.84400        5.95000        0.40600
C         -4.95500        5.36800       -1.45500
H         -4.61400        4.44800       -1.93300
H         -5.70500        5.84000       -2.09300
N         -3.83300        6.30500       -1.25500
H         -3.84900        6.86000       -0.40500
C         -2.76300        6.48400       -2.00100
N         -1.83600        7.28800       -1.57400
H         -0.99800        7.45100       -2.09600
H         -1.97500        7.71600       -0.66300
N         -2.59300        5.88400       -3.14600
H         -1.76600        6.04500       -3.68900
H         -3.31700        5.27600       -3.48200
C         -4.56900        5.63300        2.79800
O         -5.43400        6.46700        3.04500
N         -3.26900        5.90200        2.90900
H         -2.60500        5.18600        2.66200
C         -2.74300        7.23000        3.23500
H         -3.24400        7.58200        4.14000
C         -1.24000        7.10100        3.53700
H         -0.82800        8.08300        3.78000
H         -1.10000        6.44600        4.40000
S         -0.35200        6.40900        2.10700
H          0.86400        6.35600        2.66900
C         -3.02500        8.26200        2.12000
O         -3.04700        7.94200        0.92900
N         -3.21000        9.52500        2.48000
H         -3.40300       10.20800        1.76400
H         -3.20500        9.78700        3.45200
