47
1 1
H          8.66800       11.44800       -7.79000
C          7.75800       11.46500       -7.19200
H          7.94500       10.98000       -6.23500
H          6.96700       10.93600       -7.72100
C          7.34100       12.89800       -6.95800
O          8.01000       13.82200       -7.42400
N          6.23500       13.09500       -6.23200
H          5.77600       12.28100       -5.84200
C          5.69500       14.41800       -5.86700
H          6.47200       15.14300       -6.04400
C          4.46300       14.78300       -6.72700
H          3.72000       13.99300       -6.60000
H          4.02000       15.70300       -6.34200
C          4.70800       14.97100       -8.24200
H          5.25300       14.11400       -8.63900
H          3.73100       14.98100       -8.72800
C          5.42800       16.27400       -8.64900
H          5.38300       16.36300       -9.73700
H          4.89100       17.12200       -8.22400
N          6.84500       16.27200       -8.24000
H          7.36800       15.43300       -8.47000
C          7.41400       17.02700       -7.32000
N          8.50600       16.61600       -6.75400
H          8.86000       15.69800       -7.00000
H          8.84300       17.09600       -5.93300
N          6.88100       18.12100       -6.85900
H          6.08400       18.52000       -7.31800
H          7.29500       18.55300       -6.04400
C          5.42300       14.55100       -4.37000
O          5.14700       13.57300       -3.68600
N          5.54300       15.78500       -3.88000
H          5.77800       16.51500       -4.53100
C          5.51400       16.17000       -2.46600
H          6.10600       15.44400       -1.90300
C          6.19100       17.55500       -2.32500
H          5.57100       18.30900       -2.81000
H          6.24300       17.81500       -1.26700
C          7.58500       17.64000       -2.92900
O          7.76300       17.73300       -4.13900
N          8.61500       17.60900       -2.11800
H          8.47800       17.55900       -1.12300
H          9.53300       17.69900       -2.51600
C          4.09300       16.14100       -1.85200
O          3.60200       17.14600       -1.35600
N          3.39400       15.01600       -1.91100
H          2.47000       15.00400       -1.51100
H          3.79900       14.19100       -2.33300
