52
1 1
H         17.55900        5.86100        3.17900
C         17.07000        6.43800        2.39600
H         17.75800        6.58400        1.56500
H         16.77300        7.40800        2.79400
C         15.84400        5.69900        1.91400
O         14.72800        6.21700        2.01100
N         16.03400        4.48100        1.39200
H         16.97700        4.11300        1.35900
C         14.94100        3.64000        0.88000
H         14.02600        4.08700        1.21700
C         14.90800        3.62300       -0.66300
H         15.90200        3.35100       -1.02400
H         14.22000        2.84300       -0.99400
C         14.48600        4.94900       -1.33600
H         15.08000        5.77200       -0.93800
H         14.72600        4.86300       -2.39700
C         12.98500        5.29900       -1.23700
H         12.79000        6.14300       -1.90200
H         12.40200        4.45200       -1.60000
N         12.58500        5.68400        0.13200
H         13.17500        6.37700        0.58000
C         11.78200        5.02800        0.95100
N         11.83300        5.28300        2.22500
H         11.20100        4.82500        2.85800
H         12.51400        5.95300        2.56100
N         11.00800        4.05500        0.56500
H         10.61500        3.41600        1.24900
H         10.91000        3.86400       -0.41400
C         14.89400        2.23900        1.48400
O         15.75900        1.41000        1.24800
N         13.79700        2.00500        2.20500
H         13.17200        2.78400        2.33100
C         13.27500        0.72800        2.69200
H         13.65100       -0.08600        2.07000
C         13.70300        0.49600        4.15800
H         13.35500        1.34400        4.75200
H         13.19500       -0.39300        4.53400
C         15.21500        0.31800        4.40200
H         15.75500        1.18100        4.01700
C         15.47800        0.22800        5.90600
H         14.96500       -0.63600        6.33000
H         16.54900        0.12700        6.08500
H         15.13000        1.13400        6.40000
C         15.75800       -0.95500        3.75000
H         15.67200       -0.89000        2.66700
H         16.81600       -1.06600        3.99300
H         15.21700       -1.82900        4.11000
C         11.73700        0.76000        2.56100
O         11.14000        1.82500        2.36600
N         11.07900       -0.38600        2.65900
H         11.57700       -1.24700        2.82000
H         10.07400       -0.37600        2.58400
