40
1 1
H          0.63300       10.86700       -1.01200
C          1.27300       10.43700       -0.24300
H          2.16900       10.02600       -0.70600
H          0.73500        9.64400        0.27500
C          1.66400       11.51000        0.74600
O          1.25100       12.66300        0.60500
N          2.45300       11.14000        1.75900
H          2.75200       10.17100        1.79800
C          2.99600       12.03700        2.79700
H          3.32100       12.95200        2.30600
C          1.89200       12.33700        3.84000
H          0.91800       12.32700        3.34700
H          1.86800       11.53100        4.57600
C          2.01100       13.68500        4.58100
H          1.10500       13.81200        5.17500
H          2.84900       13.64500        5.27800
C          2.17400       14.93200        3.68800
H          1.85100       15.80700        4.25500
H          3.23300       15.05600        3.45300
N          1.42200       14.81900        2.42300
H          1.35200       13.88800        2.02300
C          0.90000       15.75900        1.66400
N          0.38800       15.41000        0.52200
H         -0.02300       16.08000       -0.09900
H          0.46300       14.43200        0.25100
N          0.88600       17.01900        2.00100
H          0.47800       17.70300        1.39300
H          1.28300       17.28800        2.88200
C          4.23500       11.42400        3.45900
O          4.45200       10.22100        3.37300
N          5.02700       12.26000        4.12300
H          4.78100       13.23700        4.16100
C          6.22600       11.88600        4.87400
H          5.99000       11.08600        5.57700
H          6.99600       11.53200        4.18700
C          6.76500       13.09100        5.65200
O          6.18700       14.17400        5.59500
N          7.86000       12.92900        6.38000
H          8.32300       12.03600        6.41800
H          8.21400       13.72200        6.89200
