47
1 1
H          3.39500        6.16700       -9.96000
C          3.18900        5.37600       -9.24000
H          3.91700        4.57600       -9.36700
H          2.18500        4.98900       -9.41000
C          3.28900        5.93600       -7.84200
O          3.56800        7.11800       -7.67900
N          3.04800        5.08200       -6.84000
H          2.82300        4.14400       -7.14300
C          3.10300        5.27800       -5.36600
H          2.57700        4.41500       -4.95300
C          4.54300        5.12600       -4.81800
H          4.49200        5.11800       -3.72800
H          4.89100        4.13400       -5.11200
C          5.64600        6.12200       -5.23100
H          6.58300        5.72100       -4.84100
H          5.74700        6.14200       -6.31600
C          5.51600        7.55300       -4.68100
H          4.95900        7.53900       -3.74200
H          6.52200        7.92700       -4.47700
N          4.87100        8.45400       -5.65000
H          4.46800        8.01500       -6.46900
C          4.77100        9.76600       -5.60900
N          5.29100       10.47300       -4.64600
H          5.17600       11.46700       -4.61900
H          5.68100        9.98200       -3.86300
N          4.12300       10.39300       -6.54800
H          3.56000        9.86100       -7.20200
H          4.04800       11.39100       -6.54400
C          2.31700        6.43400       -4.72100
O          2.03200        6.36200       -3.53100
N          1.92400        7.47200       -5.45600
H          2.22300        7.49400       -6.42300
C          1.02700        8.55400       -5.00200
H          0.16800        8.11000       -4.49800
C          1.70500        9.56800       -4.04800
H          2.19500       10.34200       -4.63700
C          0.68800       10.24600       -3.13300
H          1.20500       10.93700       -2.46600
H         -0.03400       10.81000       -3.72300
H          0.16600        9.50000       -2.53200
O          2.68400        8.99500       -3.21400
H          2.34200        8.13600       -2.91400
C          0.54400        9.33300       -6.22600
O          1.33900        9.62300       -7.11700
N         -0.72600        9.70700       -6.28900
H         -1.03300       10.22100       -7.10100
H         -1.37300        9.46800       -5.55500
