57
2 1
H          8.28200       10.91100       -5.03600
C          7.47000       11.59300       -4.79000
H          7.01800       11.96600       -5.70900
H          7.86800       12.42900       -4.21600
C          6.42600       10.86900       -3.97300
O          6.54600        9.66400       -3.74200
N          5.39100       11.59300       -3.53700
H          5.35900       12.56600       -3.80600
C          4.27600       11.04500       -2.74100
H          4.69200       10.66300       -1.80800
C          3.26500       12.16400       -2.42300
H          3.79800       13.09200       -2.20800
H          2.64700       12.33800       -3.30700
C          2.37700       11.83900       -1.20500
H          2.29600       10.76100       -1.06200
H          2.84900       12.25700       -0.31400
C          0.96200       12.41900       -1.33900
H          0.48900       12.41200       -0.35400
H          1.02700       13.45300       -1.68800
N          0.15200       11.60500       -2.26400
H          0.51400       10.69400       -2.52200
C         -1.03100       11.88200       -2.77400
N         -1.59400       10.99600       -3.54000
H         -2.49400       11.16000       -3.95100
H         -1.10100       10.12500       -3.69300
N         -1.66200       12.99900       -2.54100
H         -1.23700       13.68300       -1.94100
H         -2.56300       13.17300       -2.94600
C          3.58900        9.89400       -3.49100
O          3.32000       10.00000       -4.68200
N          3.28000        8.79400       -2.79500
H          3.48900        8.78400       -1.81000
C          2.56800        7.64000       -3.38100
H          3.07600        7.35400       -4.30500
C          2.60000        6.44100       -2.41100
H          2.44400        6.78900       -1.38800
H          1.76200        5.78300       -2.65100
C          3.87000        5.56700       -2.47300
H          3.69200        4.71000       -1.82100
H          3.99300        5.17800       -3.48500
C          5.18400        6.22200       -2.00500
H          4.96900        6.92000       -1.19400
H          5.82800        5.44400       -1.59000
N          5.91800        6.91800       -3.08500
H          5.88800        7.93200       -3.10200
C          6.74200        6.39100       -3.97500
N          7.37400        7.18000       -4.79100
H          7.24400        8.18100       -4.67600
H          8.01900        6.82500       -5.47100
N          6.95700        5.10900       -4.07300
H          6.50500        4.48300       -3.43200
H          7.60700        4.75400       -4.75100
C          1.12900        8.00600       -3.79800
O          0.52900        8.95500       -3.29100
N          0.55300        7.25000       -4.71900
H         -0.38700        7.46300       -5.00800
H          1.05400        6.48000       -5.13100
