52
1 1
H         10.29700        2.37400       -8.31500
C         10.47700        3.30000       -8.85800
H         10.07600        3.22600       -9.86700
H         11.54900        3.48700       -8.90700
C          9.81400        4.44800       -8.13100
O         10.48300        5.38400       -7.71600
N          8.48800        4.38400       -7.98200
H          8.01600        3.56000       -8.32800
C          7.68500        5.36900       -7.23400
H          8.25700        5.64300       -6.34500
C          7.47600        6.66500       -8.05300
H          6.68900        7.25900       -7.58600
H          8.39300        7.25200       -7.96800
C          7.17700        6.53400       -9.56200
H          7.05800        7.54000       -9.96600
H          8.04500        6.09500      -10.05600
C          5.93800        5.70900       -9.94400
H          5.81500        5.73500      -11.02800
H          6.10800        4.66700       -9.67200
N          4.70900        6.19100       -9.28400
H          4.41300        5.68600       -8.45400
C          3.92800        7.19000       -9.64800
N          2.90100        7.49300       -8.91400
H          2.75900        6.95000       -8.06500
H          2.28000        8.24000       -9.15600
N          4.14700        7.90100      -10.71900
H          4.93300        7.66900      -11.29800
H          3.53000        8.65000      -10.97000
C          6.37100        4.77100       -6.73000
O          5.82700        3.86100       -7.34800
N          5.84600        5.30600       -5.62700
H          6.34300        6.06500       -5.18900
C          4.61500        4.83300       -4.97800
H          4.77400        3.78000       -4.73400
C          4.40700        5.58200       -3.64200
H          3.72300        4.98100       -3.04100
H          5.35500        5.61400       -3.10200
C          3.81800        7.00900       -3.71700
H          2.84500        6.97300       -4.20600
C          3.61500        7.54200       -2.30000
H          4.57200        7.61400       -1.78000
H          3.15600        8.53100       -2.33700
H          2.95400        6.87800       -1.74200
C          4.70900        8.00200       -4.46800
H          4.28100        9.00300       -4.39400
H          5.70800        8.01600       -4.03300
H          4.76000        7.74000       -5.52300
C          3.37000        4.89400       -5.88700
O          3.27800        5.71200       -6.80200
N          2.38000        4.05100       -5.63000
H          2.46200        3.38300       -4.88000
H          1.55700        4.07500       -6.21100
