57
1 1
H          6.02800       13.41200        2.86000
C          6.03500       12.38800        3.23000
H          5.04500       12.13400        3.60900
H          6.76400       12.28900        4.03200
C          6.38900       11.44500        2.10500
O          5.60800       10.56600        1.75800
N          7.57700       11.61100        1.51800
H          8.17800       12.34000        1.87200
C          8.08400       10.74100        0.44200
H          7.24500       10.51000       -0.21000
C          9.12600       11.52100       -0.39200
H          8.60300       12.35600       -0.86200
H          9.86600       11.95300        0.28500
C          9.89900       10.77200       -1.50300
H         10.21500       11.50600       -2.24500
H         10.80900       10.36100       -1.06100
C          9.19200        9.61600       -2.23100
H          9.81200        9.31100       -3.07600
H          9.15100        8.77200       -1.54700
N          7.84000        9.96300       -2.72200
H          7.74200       10.84900       -3.18600
C          6.74800        9.22500       -2.59200
N          6.74700        8.03900       -2.06100
H          5.88400        7.54000       -1.92700
H          7.60500        7.61500       -1.71400
N          5.59000        9.67800       -2.97400
H          5.50300       10.58300       -3.39700
H          4.77100        9.12300       -2.78200
C          8.57100        9.39700        0.99800
O          9.76400        9.17900        1.16400
N          7.62900        8.48600        1.25400
H          6.66400        8.78300        1.19300
C          7.91600        7.10400        1.66100
H          8.49500        7.14300        2.58500
C          6.60400        6.34900        1.95100
H          6.85000        5.45500        2.52600
H          5.96900        6.97000        2.58600
C          5.81000        5.92000        0.74800
C          5.91900        4.71600        0.14100
H          6.56400        3.91000        0.47300
N          5.11700        4.68000       -0.98200
H          5.03000        3.86600       -1.57600
C          4.45300        5.87100       -1.16600
C          3.58500        6.33700       -2.16500
H          3.30700        5.69300       -2.98800
C          3.03800        7.62600       -2.05400
H          2.32100        7.97700       -2.78700
C          3.37500        8.43100       -0.95100
H          2.91500        9.40600       -0.83300
C          4.26500        7.96000        0.03400
H          4.48000        8.57600        0.89400
C          4.83900        6.67200       -0.04800
C          8.76200        6.35700        0.60900
O          8.65200        6.60600       -0.59200
N          9.58900        5.41100        1.03200
H          9.68400        5.21700        2.01500
H         10.15200        4.92900        0.35000
