47
1 1
H          4.85300        3.87000       -3.14100
C          4.16200        4.15700       -2.34900
H          3.95100        3.28900       -1.72500
H          3.23300        4.52200       -2.78300
C          4.78500        5.23900       -1.49900
O          4.99100        5.03900       -0.30700
N          5.09900        6.38400       -2.12000
H          4.87800        6.42800       -3.10500
C          5.70200        7.59200       -1.50000
H          5.95100        8.27400       -2.31300
C          4.64300        8.29000       -0.61300
H          3.66900        8.21700       -1.10200
H          4.56500        7.74800        0.33100
C          4.91300        9.78900       -0.34800
H          5.88500       10.08300       -0.74800
H          4.16100       10.37000       -0.88300
C          4.84900       10.17400        1.14000
H          4.90800       11.26200        1.20900
H          3.89100        9.84900        1.55000
N          5.95600        9.57600        1.91500
H          6.57500        8.95100        1.40300
C          6.29800        9.82700        3.16300
N          7.28200        9.18600        3.72000
H          7.56300        9.37300        4.66200
H          7.73000        8.41600        3.22200
N          5.66800       10.71000        3.88800
H          5.95400       10.88900        4.83200
H          4.91000       11.22000        3.47400
C          7.03600        7.35400       -0.75700
O          7.47000        8.20800        0.01100
N          7.67400        6.20100       -0.93900
H          7.29200        5.54800       -1.60700
C          8.84800        5.74400       -0.19000
H          9.46000        6.60300        0.09400
C          8.38300        5.01400        1.08700
H          7.77800        4.15000        0.80700
H          9.25400        4.64500        1.62900
C          7.59000        5.88800        2.04300
O          8.12500        6.72300        2.75500
N          6.28600        5.75900        2.08400
H          5.77600        6.26500        2.77900
H          5.81300        5.18200        1.39100
C          9.70300        4.82000       -1.07500
O          9.21300        4.26500       -2.05200
N         10.97300        4.62700       -0.74500
H         11.37100        5.07800        0.06200
H         11.52400        4.01400       -1.32600
