57
1 1
H         -0.93700        7.02700        1.83400
C          0.05700        6.60900        1.67900
H          0.30200        6.64400        0.61800
H          0.08000        5.57600        2.02200
C          1.07200        7.42000        2.44900
O          1.99200        7.98200        1.86200
N          0.92000        7.48700        3.77500
H          0.14800        6.97900        4.18200
C          1.83400        8.21000        4.67700
H          2.10800        9.14100        4.18100
C          1.09600        8.56600        5.98400
H          0.17500        9.09100        5.72400
H          0.81300        7.64300        6.49300
C          1.87200        9.44900        6.98500
H          1.19500        9.66500        7.81300
H          2.71700        8.90000        7.40300
C          2.36300       10.79500        6.42300
H          1.59700       11.20000        5.76000
H          2.48800       11.48300        7.26200
N          3.66000       10.68500        5.72200
H          4.24600        9.88500        5.93800
C          4.19400       11.56100        4.89000
N          3.59100       12.66000        4.53500
H          2.69200       12.86900        4.92600
H          4.05000       13.30200        3.91700
N          5.36900       11.33200        4.39500
H          5.83500       10.46400        4.65000
H          5.79900       11.91400        3.69700
C          3.14300        7.43700        4.89500
O          3.39200        6.89500        5.96600
N          3.99600        7.41700        3.87500
H          3.68700        7.82700        3.00100
C          5.37100        6.90700        3.95100
H          5.33600        5.85600        4.23900
C          6.01200        7.00600        2.55600
H          7.06800        6.74100        2.62800
H          5.53900        6.26100        1.91400
C          5.89900        8.34300        1.87900
C          4.97500        8.65900        0.94300
H          4.22500        7.97600        0.55500
N          5.11300        9.98100        0.57300
H          4.54000       10.41500       -0.13800
C          6.13100       10.59700        1.26600
C          6.62500       11.91000        1.27000
H          6.19900       12.65400        0.61300
C          7.71400       12.22800        2.10000
H          8.13500       13.22600        2.08900
C          8.28600       11.23300        2.91300
H          9.14300       11.47500        3.52900
C          7.77600        9.91900        2.90600
H          8.24200        9.16500        3.52300
C          6.67700        9.56500        2.09100
C          6.20100        7.64800        5.01700
O          5.92700        8.79900        5.36200
N          7.24300        7.01800        5.54100
H          7.46200        6.07500        5.26400
H          7.78100        7.48600        6.25300
