52
1 1
H          6.32100        4.70900       -0.32000
C          7.27500        4.18600       -0.30400
H          7.94500        4.68300        0.39800
H          7.72100        4.19400       -1.29700
C          7.06200        2.76000        0.14700
O          7.61600        2.34000        1.15600
N          6.26400        1.99600       -0.60600
H          5.85900        2.42500       -1.42600
C          5.92100        0.59000       -0.31100
H          5.74300        0.52400        0.76500
C          4.60100        0.22800       -1.03000
H          3.87100        1.01200       -0.82200
H          4.76000        0.20600       -2.11000
C          4.00200       -1.10800       -0.54200
H          4.58300       -1.47100        0.30700
H          2.98700       -0.93300       -0.18300
C          3.94900       -2.19400       -1.63400
H          3.06800       -2.02400       -2.25700
H          4.82300       -2.11700       -2.28300
N          3.89200       -3.54900       -1.04400
H          2.98900       -3.98800       -0.99200
C          4.91800       -4.19700       -0.51400
N          4.74800       -5.32700        0.11100
H          3.83400       -5.73200        0.19700
H          5.54900       -5.79700        0.49000
N          6.12800       -3.73000       -0.57800
H          6.30500       -2.86500       -1.07800
H          6.88700       -4.07300       -0.00600
C          7.09000       -0.37200       -0.60500
O          6.99100       -1.22700       -1.48400
N          8.19300       -0.22400        0.12800
H          8.17600        0.53000        0.80800
C          9.46900       -0.93000       -0.05300
H          9.85700       -0.64400       -1.03100
C         10.44000       -0.40200        1.02600
H         10.47400        0.68700        0.96000
H         10.02700       -0.65900        2.00300
C         11.88500       -0.93500        0.96300
H         11.87900       -2.02100        1.03700
C         12.59500       -0.52600       -0.33000
H         12.10100       -0.95700       -1.19700
H         12.60400        0.56100       -0.42300
H         13.62500       -0.88500       -0.30900
C         12.68800       -0.38300        2.14000
H         13.70300       -0.78000        2.11500
H         12.72800        0.70600        2.09400
H         12.22300       -0.68500        3.07900
C          9.34800       -2.47100       -0.03400
O          8.51900       -3.05600        0.66100
N         10.17900       -3.16400       -0.80100
H         10.13200       -4.17000       -0.77800
H         10.86200       -2.69000       -1.36800
