43
1 1
H          4.12600        0.27600        1.96200
C          4.19400        1.34800        2.14400
H          4.50200        1.52200        3.17500
H          3.22200        1.80800        1.97400
C          5.20900        1.95600        1.20600
O          6.19800        2.53800        1.65300
N          4.97900        1.82800       -0.10200
H          4.12500        1.36400       -0.38900
C          5.81900        2.38200       -1.17900
H          6.25500        3.31800       -0.82900
C          6.94000        1.37800       -1.54400
H          7.15900        0.72600       -0.69600
H          6.58000        0.73400       -2.34900
C          8.25000        2.05600       -1.99800
H          8.71800        1.42800       -2.75800
H          8.03400        3.01900       -2.46000
C          9.27600        2.25600       -0.86700
H          9.68900        1.28100       -0.60000
H         10.08800        2.87600       -1.24900
N          8.68000        2.86000        0.34000
H          7.74100        2.55900        0.58300
C          9.22800        3.67200        1.22300
N          8.52600        4.03100        2.25500
H          8.89500        4.63800        2.96100
H          7.58700        3.64500        2.34300
N         10.44400        4.12900        1.10800
H         10.82400        4.74200        1.80400
H         10.99500        3.84700        0.31900
C          4.96200        2.71900       -2.40700
O          3.88500        2.16100       -2.57400
N          5.46600        3.60400       -3.26300
H          6.37700        3.99200       -3.07800
C          4.87600        3.98500       -4.54500
H          4.33800        3.13300       -4.96600
C          3.87900        5.13000       -4.31300
H          4.39400        5.99800       -3.89800
H          3.40900        5.41200       -5.25600
H          3.09900        4.80800       -3.62000
C          5.99500        4.38100       -5.52800
O          7.14100        4.56400       -5.12500
N          5.69200        4.51600       -6.81300
H          6.42600        4.77800       -7.45100
H          4.74900        4.36900       -7.13400
