44
1 1
H          8.29400       11.03000       -1.80400
C          7.76000       10.26500       -1.24000
H          7.16800       10.74100       -0.46000
H          8.47900        9.58200       -0.79100
C          6.85200        9.50200       -2.17400
O          6.80300        9.79600       -3.37000
N          6.11700        8.51800       -1.63600
H          6.23200        8.32400       -0.65100
C          5.23000        7.64600       -2.43100
H          5.14600        8.15100       -3.36900
C          5.88400        6.27900       -2.73500
H          6.97100        6.38400       -2.73900
H          5.62400        5.58600       -1.93300
C          5.46000        5.66300       -4.09000
H          5.69000        4.59800       -4.04800
H          4.38100        5.74600       -4.20800
C          6.16400        6.22400       -5.35200
H          7.23000        6.00200       -5.27400
H          5.78600        5.69500       -6.23000
N          6.00100        7.68200       -5.54800
H          6.79300        8.25800       -5.29800
C          4.87200        8.34100       -5.74200
N          4.82200        9.61400       -5.48200
H          3.92900       10.07900       -5.49200
H          5.61700       10.05300       -5.03100
N          3.75600        7.75600       -6.06200
H          3.75100        6.77200       -6.24900
H          2.89200        8.25500       -5.89100
C          3.75000        7.63300       -2.04300
O          3.08000        6.61000       -2.11100
N          3.22400        8.81500       -1.73600
H          3.84000        9.61200       -1.72000
C          1.79100        9.10200       -1.82100
H          1.24700        8.34100       -1.25700
C          1.53900       10.47000       -1.16600
H          0.48200       10.73300       -1.25100
H          1.79700       10.41800       -0.10600
S          2.55000       11.75300       -1.96800
H          2.08500       12.80400       -1.27800
C          1.27600        9.05300       -3.28200
O          2.03500        9.13300       -4.25300
N         -0.03200        8.93000       -3.46800
H         -0.65700        8.85600       -2.68200
H         -0.38600        8.90900       -4.41100
