50
1 1
H          4.04000        0.24900       -2.60700
C          3.89300        1.30100       -2.84700
H          3.30300        1.77200       -2.06000
H          3.36700        1.39600       -3.79600
C          5.23100        1.99300       -2.93800
O          5.49800        2.93400       -2.19900
N          6.09400        1.54300       -3.85600
H          5.79900        0.77600       -4.44200
C          7.42100        2.14500       -4.08500
H          7.82100        2.40100       -3.10200
C          8.37800        1.11600       -4.73400
H          7.98600        0.11100       -4.56800
H          8.40800        1.25200       -5.81600
C          9.82100        1.11900       -4.18500
H          9.81600        0.57500       -3.23900
H         10.44000        0.54400       -4.87400
C         10.50800        2.47400       -3.91700
H         10.05900        2.91700       -3.02600
H         11.56100        2.29800       -3.69000
N         10.39800        3.44700       -5.02000
H          9.84100        4.27800       -4.84300
C         10.89600        3.39800       -6.23800
N         11.67600        2.43800       -6.64900
H         11.92200        1.71100       -6.00500
H         12.03600        2.44400       -7.58500
N         10.60100        4.35600       -7.06300
H          9.95800        5.06500       -6.72800
H         10.91300        4.34900       -8.01300
C          7.28900        3.46500       -4.86700
O          7.57900        3.53400       -6.05800
N          6.86000        4.52200       -4.17900
H          6.54100        4.34400       -3.23300
C          6.64700        5.86500       -4.74200
H          5.89500        5.78100       -5.52800
C          6.09300        6.80300       -3.65100
H          6.80600        6.85200       -2.82600
H          5.97900        7.80800       -4.05800
C          4.73300        6.34800       -3.10200
H          4.84600        5.36700       -2.64400
H          4.42700        7.03700       -2.31400
S          3.39600        6.25000       -4.32700
C          3.01200        8.00800       -4.55700
H          3.88000        8.53300       -4.95300
H          2.18300        8.10700       -5.26000
H          2.72300        8.44800       -3.60200
C          7.90600        6.46800       -5.40200
O          9.02800        5.97900       -5.25000
N          7.74600        7.53800       -6.16900
H          8.55700        7.96000       -6.59000
H          6.82800        7.93100       -6.30600
