50
1 1
H         11.54400        8.36100        3.48400
C         11.25600        8.01000        4.47400
H         11.79500        8.57100        5.23500
H         11.49500        6.95100        4.56700
C          9.77000        8.20000        4.66300
O          9.04200        7.23800        4.88300
N          9.29900        9.44800        4.58400
H          9.95400       10.19000        4.38200
C          7.86900        9.77700        4.68000
H          7.42600        9.09100        5.39700
C          7.69800       11.21000        5.22300
H          8.21300       11.27700        6.18300
H          8.18800       11.90700        4.54000
C          6.24400       11.68500        5.42800
H          6.29200       12.68500        5.86100
H          5.74400       11.77900        4.46300
C          5.39000       10.81100        6.36500
H          6.00300       10.47700        7.20300
H          4.59000       11.43600        6.76900
N          4.76100        9.67600        5.65600
H          4.24500        9.89900        4.81100
C          4.84400        8.38600        5.92500
N          5.51900        7.90200        6.92900
H          5.95100        8.52600        7.58300
H          5.56600        6.90700        7.05300
N          4.27100        7.54000        5.13000
H          4.56700        6.57400        5.12900
H          3.81500        7.91400        4.30500
C          7.16400        9.54400        3.33900
O          7.05800       10.44800        2.51900
N          6.65100        8.33100        3.13100
H          6.88000        7.59900        3.79400
C          5.81500        7.97600        1.97100
H          6.41800        8.11800        1.07200
C          5.37200        6.49600        2.03500
H          4.36700        6.43800        2.45400
H          5.31700        6.10100        1.02000
C          6.24600        5.59100        2.87100
N          6.18500        5.48800        4.26600
C          7.17800        4.64700        4.60600
H          7.42600        4.36100        5.62000
N          7.83800        4.22800        3.51400
H          8.64000        3.61200        3.51800
C          7.26800        4.81700        2.40800
H          7.58100        4.71200        1.37800
C          4.57700        8.88600        1.86800
O          3.92000        9.15700        2.87500
N          4.20800        9.32000        0.67200
H          3.39700        9.91400        0.60600
H          4.75600        9.10400       -0.14500
