55
2 1
H          4.80700       13.97000       -0.37700
C          4.31900       13.09300       -0.80100
H          3.34400       13.37900       -1.19100
H          4.19000       12.34100       -0.02300
C          5.17200       12.52800       -1.91200
O          4.71600       12.43900       -3.05600
N          6.40900       12.14400       -1.58200
H          6.67700       12.23300       -0.61200
C          7.37000       11.53000       -2.51500
H          7.47300       12.19000       -3.37700
C          8.74400       11.40100       -1.82700
H          8.97500       12.33500       -1.31200
H          8.68800       10.61800       -1.06800
C          9.89300       11.11100       -2.81600
H          9.50100       10.86600       -3.80400
H         10.49400       12.01600       -2.91700
C         10.80600        9.96800       -2.34900
H         11.71800        9.98500       -2.94900
H         11.07700       10.13400       -1.30400
N         10.14800        8.65900       -2.52400
H          9.47200        8.57400       -3.27500
C         10.34900        7.54500       -1.84800
N         11.20900        7.44900       -0.87200
H         11.76200        8.24900       -0.62900
H         11.33600        6.57900       -0.38800
N          9.66200        6.49200       -2.17500
H          9.00800        6.58300       -2.94200
H          9.77700        5.62400       -1.68800
C          6.85500       10.16500       -2.98900
O          6.62400        9.27100       -2.18200
N          6.67900       10.00100       -4.30300
H          6.94400       10.76400       -4.90400
C          6.10300        8.79200       -4.92100
H          5.23800        8.48700       -4.32700
C          5.60700        9.11500       -6.35000
H          6.42200        9.52000       -6.95200
H          5.28900        8.18300       -6.82000
C          4.39000       10.06700       -6.38600
H          3.80900        9.83500       -7.28000
H          3.75500        9.86800       -5.52200
C          4.74600       11.56600       -6.44400
H          5.39300       11.84100       -5.61400
H          5.29200       11.75300       -7.37100
C          3.50600       12.47400       -6.42200
H          3.83200       13.49500       -6.64500
H          2.82000       12.16600       -7.21800
N          2.81900       12.45500       -5.10500
H          2.09100       13.15600       -5.06300
H          2.40900       11.54900       -4.92200
H          3.48600       12.64000       -4.35400
C          7.06500        7.58700       -4.86600
O          8.20600        7.69200       -4.41600
N          6.61200        6.41600       -5.28400
H          7.23100        5.62100       -5.27000
H          5.67300        6.32900       -5.63600
