50
1 1
H         15.45000        7.41900       -3.38100
C         14.44300        7.03400       -3.22800
H         14.41700        6.43300       -2.32100
H         14.15700        6.42200       -4.08200
C         13.48100        8.19200       -3.09500
O         12.54000        8.30200       -3.87700
N         13.71000        9.04800       -2.09700
H         14.53100        8.88600       -1.52700
C         12.98000       10.30200       -1.82800
H         12.65300       10.73500       -2.77400
C         11.76500       10.05300       -0.90600
H         12.11100        9.54900       -0.00200
H         11.35300       11.01600       -0.60000
C         10.61200        9.22900       -1.50900
H         10.96800        8.23200       -1.76800
H          9.84200        9.11600       -0.74400
C          9.98100        9.89700       -2.74100
H          9.64400       10.89700       -2.45800
H         10.72700       10.01400       -3.52800
N          8.82500        9.13400       -3.25400
H          7.92300        9.40700       -2.90300
C          8.84600        8.16500       -4.15500
N          7.73000        7.62200       -4.55400
H          6.85100        7.94000       -4.18500
H          7.74900        6.88900       -5.23800
N          9.94500        7.70600       -4.68200
H          9.93700        6.98000       -5.37000
H         10.84300        8.07400       -4.37100
C         13.92700       11.32500       -1.19200
O         14.96700       10.95600       -0.65400
N         13.55400       12.60100       -1.25100
H         12.67700       12.82600       -1.69500
C         14.34800       13.74500       -0.79800
H         14.92200       13.45000        0.08200
C         15.34100       14.16400       -1.90300
H         15.99700       14.93300       -1.49200
H         15.96900       13.31200       -2.16700
C         14.70500       14.72800       -3.18600
H         14.01600       15.53200       -2.92500
H         15.50500       15.16900       -3.78200
S         13.83600       13.53400       -4.24700
C         13.33900       14.64100       -5.59300
H         12.70100       15.43400       -5.20100
H         14.22500       15.08200       -6.05200
H         12.79000       14.07600       -6.34600
C         13.42400       14.90400       -0.39300
O         12.26100       14.94400       -0.78200
N         13.91800       15.86300        0.37800
H         14.87200       15.82500        0.69700
H         13.30900       16.62200        0.64000
