52
1 1
H          4.55500        8.44800        2.01800
C          3.77200        8.85500        1.38000
H          3.72600        9.93600        1.50700
H          2.81400        8.41600        1.65500
C          4.07900        8.53100       -0.06300
O          5.09000        7.88700       -0.35300
N          3.20700        8.96400       -0.97900
H          2.39900        9.48500       -0.65800
C          3.34900        8.79800       -2.43700
H          4.38900        8.99400       -2.69200
C          2.95000        7.35500       -2.82800
H          3.20700        6.67500       -2.01400
H          1.86500        7.30200       -2.93700
C          3.60600        6.79900       -4.11000
H          3.33000        5.74600       -4.18700
H          3.19000        7.30700       -4.98100
C          5.14400        6.89500       -4.17200
H          5.50800        6.14200       -4.87200
H          5.41500        7.87800       -4.56400
N          5.77100        6.72800       -2.84500
H          5.25300        7.09800       -2.05400
C          6.95500        6.25100       -2.52400
N          7.32500        6.31900       -1.28000
H          6.69900        6.78500       -0.62700
H          8.21400        5.97400       -0.97500
N          7.76900        5.72500       -3.39600
H          8.66200        5.37200       -3.10900
H          7.48200        5.67200       -4.35600
C          2.50400        9.82500       -3.19500
O          1.52300       10.33000       -2.66300
N          2.88800       10.09600       -4.44100
H          3.68100        9.59800       -4.81100
C          2.17300       10.93700       -5.40900
H          1.14800       11.09100       -5.06900
C          2.85700       12.32500       -5.55200
H          3.88800       12.17400       -5.87800
C          2.16500       13.18200       -6.62800
H          2.26000       12.72100       -7.61100
H          1.11100       13.32100       -6.38400
H          2.64400       14.16000       -6.68900
C          2.86500       13.12600       -4.22400
H          2.75000       14.19000       -4.43100
H          2.01900       12.83100       -3.60200
C          4.16900       12.97900       -3.42600
H          4.34000       11.94200       -3.14400
H          5.00900       13.33200       -4.02500
H          4.10500       13.58200       -2.52000
C          2.12200       10.15700       -6.73300
O          3.03700        9.39400       -7.03300
N          1.06500       10.30000       -7.52100
H          0.31800       10.92400       -7.26500
H          1.03900        9.77900       -8.38400
