47
1 1
H         -8.07600       10.99100       -6.52200
C         -7.49000       11.91000       -6.49800
H         -7.78900       12.50700       -5.63800
H         -7.66800       12.47400       -7.41300
C         -6.02400       11.56700       -6.39300
O         -5.66400       10.39100       -6.34500
N         -5.16400       12.58900       -6.35100
H         -5.54700       13.52700       -6.39300
C         -3.69500       12.47500       -6.27900
H         -3.45500       11.56400       -5.74400
C         -3.13200       12.40700       -7.72400
H         -3.90700       12.05900       -8.41100
H         -2.87500       13.42000       -8.04100
C         -1.89500       11.50800       -7.92300
H         -1.34500       11.88100       -8.78900
H         -1.23200       11.58800       -7.06500
C         -2.22600       10.02600       -8.20100
H         -2.72800        9.96300       -9.16900
H         -1.29700        9.45800       -8.27800
N         -3.10800        9.43500       -7.17900
H         -4.10600        9.55600       -7.32000
C         -2.78000        8.98800       -5.98400
N         -3.71800        8.78900       -5.11100
H         -3.46800        8.67600       -4.14100
H         -4.66800        9.04200       -5.36700
N         -1.54800        8.80600       -5.60400
H         -0.80700        8.88100       -6.27500
H         -1.36700        8.56000       -4.64500
C         -3.11900       13.67500       -5.50000
O         -3.59600       14.78000       -5.73300
N         -2.13200       13.50400       -4.59400
C         -1.49000       14.63400       -3.93000
H         -2.22600       15.32500       -3.51700
H         -0.85500       15.15800       -4.64600
C         -0.63000       14.04600       -2.81300
H         -1.21900       13.95800       -1.89900
H          0.26600       14.64300       -2.63600
C         -0.29100       12.65700       -3.35000
H         -0.03400       11.96400       -2.54700
H          0.53600       12.73500       -4.05700
C         -1.56400       12.24300       -4.09700
H         -1.28100       11.59600       -4.92300
C         -2.50500       11.44800       -3.17200
O         -2.37500       10.23100       -3.07100
N         -3.48600       12.07700       -2.53600
H         -3.58400       13.07700       -2.61500
H         -4.08400       11.54500       -1.92400
