43
1 1
H         10.74000       -4.49800       -3.22000
C         10.54100       -3.97600       -4.15600
H          9.49600       -4.11100       -4.42800
H         11.18000       -4.38500       -4.93700
C         10.83800       -2.50600       -3.97800
O         11.24000       -2.08000       -2.89300
N         10.63400       -1.71200       -5.03900
H         10.32100       -2.14100       -5.89900
C         10.94600       -0.26900       -5.03900
H         11.22700       -0.07500       -4.03000
C         12.19600        0.05900       -5.88600
H         12.86500       -0.80300       -5.89600
H         11.87700        0.24000       -6.91400
C         13.00800        1.28300       -5.39200
H         13.66000        1.58700       -6.21200
H         12.33700        2.11900       -5.20700
C         13.92000        1.07400       -4.15500
H         14.68300        0.33800       -4.41800
H         14.43600        2.01200       -3.93900
N         13.22000        0.60800       -2.93600
H         13.37600       -0.35300       -2.67200
C         12.23700        1.21600       -2.29200
N         11.45000        0.52600       -1.52200
H         10.61800        0.97100       -1.16700
H         11.51600       -0.48500       -1.52100
N         11.92600        2.46400       -2.48300
H         11.02200        2.78500       -2.16500
H         12.48700        3.02800       -3.09300
C          9.75900        0.69500       -5.14300
O          9.87100        1.77700       -5.70400
N          8.65100        0.33300       -4.49800
H          8.63800       -0.57100       -4.05800
C          7.60000        1.28400       -4.13400
H          7.29100        1.82100       -5.03300
C          6.39400        0.49400       -3.60900
H          6.05500       -0.21500       -4.36700
H          6.66500       -0.04900       -2.70200
H          5.57400        1.17600       -3.38100
C          8.09200        2.33200       -3.10300
O          9.06900        2.12500       -2.37600
N          7.41300        3.46700       -3.00800
H          7.70500        4.15400       -2.33200
H          6.61500        3.63300       -3.60000
