50
1 1
H          9.99300       10.94200        8.46700
C         10.91100       11.36400        8.87300
H         11.45000       10.60100        9.43200
H         10.66600       12.19400        9.53500
C         11.77500       11.86900        7.74300
O         12.08500       13.05800        7.68300
N         12.16700       10.97300        6.83200
H         11.80600       10.03300        6.91100
C         12.93700       11.31900        5.62500
H         13.14200       12.38300        5.67100
C         14.28800       10.58200        5.57800
H         14.11400        9.50800        5.66100
H         14.74700       10.75800        4.60400
C         15.30700       11.00900        6.65600
H         15.00000       10.58500        7.61300
H         16.26600       10.55800        6.39900
C         15.52400       12.52600        6.86100
H         14.73900       12.88800        7.52900
H         16.47600       12.68900        7.37000
N         15.46500       13.32700        5.62000
H         14.65300       13.93000        5.51700
C         16.26900       13.32700        4.57700
N         17.39300       12.66900        4.55000
H         17.68900       12.18900        5.38000
H         17.98700       12.71900        3.74300
N         15.90900       13.98800        3.51900
H         16.41400       13.93000        2.65600
H         15.00000       14.44500        3.52800
C         12.13200       11.16800        4.33300
O         11.13000       10.46800        4.27500
N         12.58300       11.89800        3.31700
H         13.43900       12.41000        3.46400
C         11.87400       12.21900        2.07900
H         11.34600       11.33000        1.72800
C         10.83900       13.33900        2.34800
H         10.29300       13.51900        1.42100
H         10.11300       12.97700        3.07800
C         11.40000       14.69600        2.83500
H         12.13000       15.07300        2.11900
H         10.57900       15.41200        2.87600
C         12.04400       14.62900        4.22000
O         13.26300       14.59700        4.36000
N         11.27000       14.48600        5.27200
H         11.69400       14.33400        6.18300
H         10.27000       14.49400        5.17700
C         12.89000       12.64400        1.00400
O         13.99600       13.07800        1.32400
N         12.53400       12.54900       -0.27000
H         11.62600       12.19600       -0.52400
H         13.19600       12.83200       -0.97500
