44
1 1
H          5.85100        3.71800       -5.31100
C          6.87100        3.49700       -4.99800
H          7.57700        3.92700       -5.70700
H          7.01100        2.41700       -4.96200
C          7.11700        4.07400       -3.62500
O          7.41100        3.33600       -2.68600
N          6.98800        5.40100       -3.49100
H          6.72100        5.93000       -4.30900
C          7.19100        6.11500       -2.21700
H          8.19300        5.86600       -1.86400
C          7.12700        7.64200       -2.43600
H          7.76000        7.88800       -3.29000
H          6.10900        7.94100       -2.69100
C          7.64300        8.45400       -1.22500
H          8.10400        7.78800       -0.49400
H          8.42600        9.12500       -1.58200
C          6.58000        9.32100       -0.52300
H          7.06500        9.92600        0.24600
H          6.15100       10.00800       -1.25600
N          5.49700        8.52200        0.07900
H          4.68100        8.37100       -0.49500
C          5.52600        7.83300        1.20700
N          4.53800        7.05000        1.51700
H          4.65900        6.42500        2.30300
H          3.80400        6.88800        0.84900
N          6.53700        7.84600        2.02600
H          7.30500        8.46800        1.86700
H          6.54300        7.18500        2.79200
C          6.18300        5.61700       -1.17600
O          4.99900        5.94800       -1.23000
N          6.67400        4.83300       -0.22100
H          7.64300        4.56500       -0.31200
C          5.86800        4.00200        0.68200
H          4.84500        4.37600        0.70200
C          5.79500        2.57100        0.12400
H          5.32400        1.91400        0.85700
H          5.19200        2.56700       -0.78600
O          7.09300        2.09600       -0.18400
H          7.28200        2.31900       -1.11500
C          6.38900        4.09400        2.12500
O          6.06800        5.05500        2.82500
N          7.20900        3.15900        2.58400
H          7.54600        3.21800        3.53200
H          7.47900        2.39600        1.97500
