50
1 1
H         -0.68400        3.42000        5.53600
C         -0.51400        3.83800        4.54500
H         -0.84600        4.87600        4.52800
H         -1.07400        3.26700        3.80600
C          0.96000        3.78000        4.21800
O          1.58200        4.81600        3.98500
N          1.52400        2.56700        4.19300
H          0.93500        1.76500        4.37900
C          2.94400        2.31000        3.90300
H          3.30500        3.13700        3.30800
C          3.72900        2.23400        5.23300
H          3.48300        3.10200        5.84700
H          3.37900        1.35100        5.77100
C          5.26600        2.13400        5.12400
H          5.63100        1.70300        6.05700
H          5.54300        1.44600        4.32800
C          6.00800        3.47000        4.93000
H          5.77300        4.13400        5.76300
H          7.08000        3.26800        4.97000
N          5.70300        4.11100        3.63700
H          6.07800        3.66500        2.80800
C          4.83600        5.07900        3.40500
N          4.50400        5.34700        2.17800
H          3.82600        6.06200        1.98600
H          4.90800        4.78700        1.43400
N          4.22900        5.72600        4.35500
H          3.31300        6.10300        4.15500
H          4.46300        5.52300        5.30700
C          3.12400        1.05400        3.05100
O          2.55100        0.01400        3.35100
N          3.93100        1.16300        1.99700
H          4.37400        2.05200        1.81700
C          4.34500        0.04100        1.15700
H          3.47300       -0.59900        1.00400
C          4.78600        0.56300       -0.22900
H          4.69700       -0.27100       -0.92700
H          4.08300        1.32800       -0.56400
C          6.22600        1.10600       -0.36800
H          6.93100        0.31400       -0.11500
H          6.39200        1.34500       -1.41900
C          6.58100        2.35600        0.44300
O          5.75200        3.09100        0.97200
N          7.85200        2.66900        0.55600
H          8.10500        3.51300        1.03700
H          8.55200        2.07200        0.14800
C          5.42900       -0.80000        1.85200
O          6.32500       -0.25500        2.49000
N          5.39800       -2.11700        1.70600
H          4.65300       -2.55900        1.19200
H          6.10900       -2.66500        2.16400
