43
1 1
H          4.43400       16.55500        3.25800
C          4.76300       16.74100        2.23700
H          5.81400       17.02900        2.24100
H          4.16900       17.54400        1.80400
C          4.58800       15.48600        1.41500
O          5.56300       14.95100        0.88300
N          3.34700       14.99900        1.31200
H          2.60000       15.50000        1.78000
C          2.95500       13.82100        0.51600
H          3.48400       13.87100       -0.43300
C          3.33400       12.53400        1.28900
H          4.23200       12.72000        1.88100
H          2.54200       12.30000        2.00300
C          3.61000       11.28500        0.42500
H          3.98500       10.50500        1.09000
H          2.67400       10.92300       -0.00100
C          4.63200       11.47000       -0.71500
H          5.04000       10.49100       -0.97400
H          4.10800       11.85800       -1.59100
N          5.71000       12.41200       -0.35600
H          5.44700       13.18700        0.24600
C          6.95800       12.46500       -0.76900
N          7.49000       11.56100       -1.54300
H          8.44600       11.63900       -1.83500
H          6.92800       10.78200       -1.83400
N          7.68600       13.47400       -0.39200
H          7.23500       14.19700        0.16400
H          8.64200       13.57000       -0.67400
C          1.45700       13.84800        0.19300
O          0.68800       14.50600        0.88200
N          1.06500       13.10600       -0.83800
H          1.75700       12.56600       -1.33300
C         -0.31600       12.87200       -1.25500
H         -0.96800       12.88200       -0.38000
C         -0.74600       13.99900       -2.20500
H         -0.66600       14.96200       -1.69900
H         -0.11200       14.00500       -3.09300
H         -1.78300       13.85400       -2.51000
C         -0.41600       11.48300       -1.91700
O          0.60300       10.86400       -2.21900
N         -1.61900       10.97500       -2.14800
H         -1.68000       10.06900       -2.58400
H         -2.44800       11.49200       -1.90200
