55
2 1
H          3.81200        4.86500       -5.63800
C          3.21600        3.96100       -5.51700
H          3.41300        3.28800       -6.35100
H          2.16000        4.22600       -5.50700
C          3.58800        3.28200       -4.22100
O          4.47600        3.75200       -3.51500
N          2.90700        2.17400       -3.90700
H          2.22200        1.86700       -4.58600
C          3.13100        1.29800       -2.73000
H          2.22900        0.69000       -2.64100
C          4.25900        0.26800       -2.99700
H          4.32800       -0.40700       -2.14100
H          3.94100       -0.34500       -3.84200
C          5.67700        0.77600       -3.32600
H          6.28300       -0.09200       -3.59000
H          5.64100        1.42000       -4.20400
C          6.38300        1.50800       -2.17500
H          5.81900        2.39700       -1.89300
H          6.41100        0.84600       -1.30700
N          7.76400        1.88900       -2.53400
H          8.48800        1.24800       -2.25500
C          8.14900        2.98900       -3.16000
N          7.31000        3.90000       -3.56900
H          6.31300        3.76500       -3.41700
H          7.62900        4.72400       -4.03900
N          9.41500        3.19800       -3.39300
H         10.10200        2.52700       -3.09800
H          9.71000        4.03000       -3.87000
C          3.18700        2.00200       -1.35800
O          3.86600        1.53800       -0.44900
N          2.46200        3.11700       -1.19000
H          1.95600        3.44500       -1.99700
C          2.38700        3.92200        0.05200
H          3.40500        4.01900        0.43700
C          1.86700        5.33700       -0.28400
H          2.33200        5.68700       -1.20800
H          0.79100        5.29000       -0.45500
C          2.19600        6.35900        0.82600
H          2.24100        5.87200        1.80100
H          3.19200        6.75600        0.62500
C          1.20100        7.53400        0.89900
H          1.77800        8.44600        1.07100
H          0.68100        7.65900       -0.05200
C          0.18900        7.41400        2.05500
H          0.74800        7.33000        2.99300
H         -0.38800        8.34400        2.10300
N         -0.73600        6.25900        1.91800
H         -0.21800        5.38000        1.89100
H         -1.36500        6.20700        2.70900
H         -1.28600        6.32600        1.07400
C          1.56500        3.24700        1.17500
O          0.59300        3.82100        1.66500
N          1.90600        2.03400        1.57200
H          1.37000        1.58600        2.29800
H          2.70800        1.57900        1.15400
