52
1 1
H          2.09300        2.05100       -2.28300
C          2.70500        1.34000       -1.73000
H          2.08600        0.49700       -1.42300
H          3.12600        1.82000       -0.84900
C          3.81800        0.83500       -2.61700
O          3.91800       -0.35900       -2.86700
N          4.68800        1.73900       -3.07800
H          4.53900        2.69700       -2.79800
C          5.81500        1.45500       -3.99600
H          5.43200        0.75800       -4.74300
C          6.19300        2.76900       -4.72200
H          5.27400        3.18600       -5.13900
H          6.55800        3.48200       -3.98000
C          7.22200        2.72200       -5.87500
H          7.15900        3.67700       -6.39900
H          8.23400        2.66200       -5.47400
C          7.02200        1.60600       -6.91400
H          5.96400        1.55300       -7.17600
H          7.58900        1.87500       -7.80800
N          7.50000        0.29400       -6.43100
H          7.97800        0.28900       -5.53400
C          7.38200       -0.86800       -7.04900
N          7.76600       -1.96800       -6.47600
H          8.08800       -1.94700       -5.50800
H          7.67200       -2.85400       -6.93000
N          6.87300       -0.96400       -8.24600
H          6.58400       -0.12700       -8.71600
H          6.79600       -1.85700       -8.69400
C          6.99600        0.71600       -3.32900
O          8.15000        0.96200       -3.66600
N          6.72000       -0.21500       -2.41800
H          5.74200       -0.43200       -2.27300
C          7.71400       -1.01400       -1.67800
H          8.34700       -0.31500       -1.13000
C          7.01200       -1.91600       -0.63100
H          7.78800       -2.41000       -0.04300
C          6.21200       -1.04600        0.35600
H          5.86700       -1.66100        1.18900
H          6.84400       -0.25300        0.75600
H          5.34200       -0.60700       -0.13100
C          6.08900       -3.01000       -1.22500
H          5.29900       -3.23500       -0.50700
H          5.60600       -2.64800       -2.13300
C          6.79800       -4.33800       -1.52100
H          7.53800       -4.21800       -2.31000
H          7.28500       -4.70900       -0.61900
H          6.06100       -5.07100       -1.84900
C          8.65300       -1.81300       -2.60200
O          8.36000       -2.05900       -3.77200
N          9.80300       -2.23400       -2.09500
H         10.04600       -2.02700       -1.13900
H         10.42800       -2.75700       -2.68600
