49
1 1
H         13.19500        1.70000        2.40500
C         12.75200        1.83800        1.41900
H         11.79100        2.34100        1.52400
H         12.60500        0.86700        0.94900
C         13.67000        2.68100        0.56800
O         14.73900        3.08400        1.02500
N         13.26300        2.94500       -0.67600
H         12.33800        2.61800       -0.93200
C         13.92200        3.84200       -1.64800
H         14.71900        4.39800       -1.15700
C         14.49700        3.04600       -2.84200
H         13.67200        2.51100       -3.31600
H         14.87900        3.75400       -3.58000
C         15.61300        2.02100       -2.55600
H         15.27100        1.29800       -1.81400
H         15.79700        1.47500       -3.48200
C         16.95400        2.62800       -2.10800
H         17.72700        1.86300       -2.20800
H         17.20700        3.46900       -2.75800
N         16.89400        3.06200       -0.70600
H         16.02100        2.88600       -0.22100
C         17.80500        3.65900        0.03300
N         17.49100        3.97800        1.25300
H         18.14400        4.42700        1.86500
H         16.55000        3.75900        1.57100
N         18.99700        3.94500       -0.41000
H         19.23600        3.69000       -1.35100
H         19.66500        4.40000        0.18300
C         12.92300        4.88900       -2.15400
O         11.72100        4.64700       -2.15000
N         13.43300        6.03200       -2.60800
H         14.43600        6.14600       -2.61700
C         12.66600        7.15100       -3.18000
H         11.83200        6.74200       -3.75200
C         12.07900        8.03500       -2.05300
H         11.51900        7.38700       -1.37900
C         13.15300        8.75200       -1.22200
H         13.83600        8.02600       -0.78400
H         13.71800        9.44900       -1.84200
H         12.67700        9.30800       -0.41300
C         11.09600        9.08400       -2.58400
H         10.59500        9.56700       -1.74400
H         11.61400        9.84900       -3.16200
H         10.33700        8.60300       -3.20200
C         13.56800        7.92800       -4.14800
O         14.78800        7.88200       -4.02500
N         13.00900        8.61600       -5.13400
H         12.00800        8.64800       -5.23200
H         13.61300        9.11400       -5.76800
