44
1 1
H         -8.33700        0.86000       -0.30100
C         -8.80300        0.62000        0.65300
H         -9.84400        0.34100        0.49800
H         -8.75700        1.49200        1.30500
C         -8.06400       -0.52100        1.30800
O         -7.53400       -0.37600        2.40200
N         -7.99600       -1.67600        0.63700
H         -8.44600       -1.71600       -0.26600
C         -7.34000       -2.89500        1.15700
H         -7.56100       -2.91100        2.22400
C         -8.00600       -4.14100        0.52500
H         -9.08600       -4.01900        0.62400
H         -7.78100       -4.15300       -0.54300
C         -7.66200       -5.53600        1.10200
H         -8.38700       -6.24000        0.69200
H         -6.68500       -5.85800        0.74000
C         -7.70000       -5.66600        2.63500
H         -8.62500       -5.21600        3.00300
H         -7.70700       -6.72900        2.88600
N         -6.52900       -5.03600        3.28000
H         -5.77500       -4.75900        2.65800
C         -6.38400       -4.73300        4.55700
N         -7.24200       -5.12200        5.45900
H         -8.01600       -5.69100        5.17200
H         -7.11400       -4.87500        6.42200
N         -5.37600       -4.01700        4.96000
H         -5.27200       -3.76800        5.92300
H         -4.73900       -3.59900        4.28300
C         -5.79800       -2.86300        1.07700
O         -5.16200       -3.91300        1.04200
N         -5.17700       -1.68600        1.10000
H         -5.73900       -0.86200        1.28300
C         -3.71600       -1.51100        1.12000
H         -3.30300       -1.98100        0.22700
C         -3.39000       -0.01300        1.05600
H         -2.31900        0.14700        1.18800
H         -3.67500        0.36500        0.07300
O         -4.11100        0.70900        2.03600
H         -3.76900        0.52200        2.91600
C         -3.04700       -2.17000        2.34000
O         -3.68500       -2.48200        3.34600
N         -1.74200       -2.39800        2.28100
H         -1.21600       -2.16100        1.45500
H         -1.29200       -2.83000        3.07200
