54
1 1
H          0.58300        2.72400        0.02300
C          0.28900        3.74400       -0.22000
H          0.56200        4.40600        0.60000
H         -0.78800        3.78200       -0.37800
C          0.99700        4.17900       -1.48000
O          1.77200        3.41400       -2.05900
N          0.75600        5.41900       -1.92100
H          0.13000        6.01700       -1.39600
C          1.37200        5.95000       -3.14500
H          2.29600        5.40100       -3.25800
C          0.47900        5.64600       -4.36200
H         -0.01600        4.68500       -4.20800
H         -0.30200        6.40600       -4.43200
C          1.22600        5.56200       -5.70600
H          0.49000        5.30200       -6.46800
H          1.63700        6.53700       -5.97000
C          2.33600        4.49200       -5.73800
H          2.06100        3.66000       -5.08500
H          2.39500        4.09900       -6.75500
N          3.66600        5.04100       -5.38900
H          4.02900        5.76100       -6.00100
C          4.51300        4.62000       -4.46400
N          5.67100        5.20100       -4.38200
H          5.83300        6.04400       -4.92100
H          6.30200        4.96100       -3.63900
N          4.24300        3.69800       -3.58200
H          4.93100        3.43200       -2.90100
H          3.29800        3.34400       -3.46900
C          1.79700        7.41300       -3.04600
O          1.17300        8.22200       -2.37500
N          2.92000        7.68900       -3.69900
H          3.32800        6.93600       -4.22600
C          3.70600        8.92200       -3.67600
H          3.04600        9.78300       -3.79600
C          4.44900        9.03600       -2.32900
H          5.09500        9.91500       -2.35200
H          3.71400        9.20800       -1.54100
C          5.28100        7.81700       -1.95400
C          4.68500        6.75400       -1.24600
H          3.65600        6.83100       -0.91800
C          5.42500        5.59300       -0.95700
H          4.97200        4.77200       -0.41900
C          6.77600        5.50600       -1.34700
O          7.45400        4.35000       -1.14800
H          8.38600        4.49600       -0.96000
C          7.38700        6.58100       -2.02800
H          8.42500        6.51700       -2.32300
C          6.63700        7.73400       -2.33300
H          7.10500        8.55800       -2.85500
C          4.70400        8.88100       -4.84900
O          5.01900        7.80600       -5.37100
N          5.22400       10.02500       -5.27200
H          5.87100       10.00700       -6.04400
H          4.96100       10.89700       -4.83900
