57
1 1
H          4.55500       13.28400       -7.37400
C          3.67500       12.81800       -6.93300
H          3.09400       12.32200       -7.71000
H          3.06200       13.58300       -6.45900
C          4.10300       11.80600       -5.89700
O          3.74000       11.93900       -4.73000
N          4.87000       10.79800       -6.33200
H          5.10000       10.81500       -7.31600
C          5.43700        9.68500       -5.53000
H          5.62500        8.88000       -6.24200
C          6.84100       10.02600       -4.96700
H          7.22500        9.15100       -4.43900
H          7.49000       10.16000       -5.83300
C          7.06100       11.26600       -4.07400
H          8.13700       11.44300       -4.05400
H          6.60800       12.14800       -4.52900
C          6.61700       11.13800       -2.60700
H          6.78100       10.11200       -2.27200
H          7.23600       11.80300       -2.00200
N          5.21000       11.52500       -2.42800
H          4.75000       11.91900       -3.24100
C          4.41600       11.25000       -1.41500
N          3.16500       11.60000       -1.47600
H          2.52800       11.33900       -0.74700
H          2.83000       12.02400       -2.32700
N          4.82600       10.63000       -0.34500
H          5.77700       10.31700       -0.31600
H          4.16800       10.36000        0.36400
C          4.45200        9.01800       -4.55300
O          4.77900        8.75600       -3.39900
N          3.23100        8.76100       -5.02300
H          3.04000        8.94700       -5.99600
C          2.11400        8.23900       -4.22700
H          2.51000        7.61400       -3.42600
C          1.35800        9.42400       -3.61200
H          2.07000       10.21600       -3.39400
H          0.66200        9.82500       -4.35000
C          0.62700        9.13700       -2.33900
C         -0.70400        9.26900       -2.14100
H         -1.41900        9.57500       -2.89700
N         -1.00600        8.98300       -0.82300
H         -1.94500        9.01500       -0.44600
C          0.12300        8.66500       -0.09900
C          0.34000        8.33300        1.24600
H         -0.48800        8.29200        1.93900
C          1.64300        8.03100        1.67500
H          1.82200        7.75100        2.70600
C          2.70900        8.06100        0.75700
H          3.70200        7.78500        1.08700
C          2.48100        8.40600       -0.59000
H          3.30300        8.39700       -1.29200
C          1.18400        8.72800       -1.05000
C          1.17500        7.37300       -5.07800
O          1.18400        7.46500       -6.30000
N          0.34800        6.54400       -4.45700
H          0.33200        6.49700       -3.45100
H         -0.26700        5.97700       -5.01900
