47
1 1
H         11.33800        8.06200       -9.49300
C         10.40400        7.51200       -9.39000
H         10.38600        6.69300      -10.10900
H          9.56200        8.17500       -9.58300
C         10.29500        6.94800       -7.99300
O         10.21900        5.73600       -7.83100
N         10.30000        7.83600       -6.99000
H         10.37400        8.80000       -7.28400
C         10.18600        7.60400       -5.52500
H         10.34000        8.57700       -5.05700
C          8.75000        7.14700       -5.17100
H          8.08700        7.39200       -6.00400
H          8.72300        6.06200       -5.05700
C          8.13900        7.81700       -3.92100
H          8.16300        8.89700       -4.06900
H          7.09000        7.52600       -3.86100
C          8.79900        7.50600       -2.56600
H          9.84100        7.81900       -2.58900
H          8.30500        8.11700       -1.80800
N          8.65800        6.08600       -2.17400
H          7.72400        5.71200       -2.18600
C          9.60500        5.27600       -1.72900
N         10.85800        5.60900       -1.65200
H         11.18400        6.45700       -2.10100
H         11.52800        4.89900       -1.38700
N          9.32900        4.05700       -1.37200
H         10.10900        3.44200       -1.16200
H          8.38900        3.70700       -1.36400
C         11.25500        6.69900       -4.88800
O         11.76600        7.05200       -3.83000
N         11.57700        5.55200       -5.48200
H         11.06900        5.33300       -6.33200
C         12.53900        4.55800       -4.98800
H         13.21500        5.05200       -4.28700
C         11.76300        3.44900       -4.24100
H         10.78600        3.81600       -3.93200
H         11.59800        2.60200       -4.90700
C         12.48400        2.95300       -2.99800
O         11.96800        3.05200       -1.89200
N         13.69400        2.46900       -3.11900
H         14.14000        2.43800       -4.03400
H         14.16000        2.13600       -2.29300
C         13.42700        3.95200       -6.09700
O         14.32800        3.18100       -5.79300
N         13.19200        4.24900       -7.37100
H         13.78300        3.82900       -8.07200
H         12.42200        4.84500       -7.63100
