47
1 1
H         12.67100       10.81900        0.04300
C         12.57200       11.27300        1.02800
H         12.31500       12.32600        0.91700
H         13.51600       11.18700        1.56500
C         11.48500       10.56900        1.80300
O         10.50200       11.19600        2.19500
N         11.65700        9.26400        2.03100
H         12.52600        8.85100        1.71200
C         10.75700        8.37600        2.79700
H         10.08500        8.98200        3.39300
C          9.94400        7.47200        1.83800
H         10.65800        6.85500        1.28700
H          9.33300        6.79000        2.43000
C          9.02900        8.14800        0.79300
H          9.58500        8.91000        0.24500
H          8.74200        7.38200        0.07100
C          7.72800        8.75500        1.34700
H          7.08600        9.02000        0.50400
H          7.21200        8.00100        1.94200
N          7.99600        9.97000        2.13100
H          8.69400       10.60000        1.75100
C          7.69000       10.20800        3.38900
N          8.32300       11.15100        4.01500
H          8.22400       11.22900        5.01500
H          9.07500       11.62800        3.52800
N          6.83700        9.49500        4.06500
H          6.77700        9.63000        5.06300
H          6.27200        8.81400        3.59300
C         11.58500        7.49800        3.75800
O         12.72300        7.18900        3.41800
N         11.04700        7.06900        4.91900
C         11.71800        6.09700        5.77600
H         12.73000        6.42100        6.02600
H         11.75500        5.13300        5.26600
C         10.86900        5.97800        7.04100
H         11.21300        6.69700        7.78700
H         10.89000        4.96600        7.44700
C          9.47500        6.36600        6.55000
H          8.84300        6.72500        7.36500
H          9.01000        5.50500        6.06600
C          9.75500        7.45000        5.50300
H          8.96800        7.42100        4.75000
C          9.75600        8.84800        6.15500
O          8.70200        9.46200        6.29600
N         10.90800        9.40400        6.50900
H         11.77200        8.89700        6.40000
H         10.89400       10.30900        6.95200
