44
1 1
H          5.39100        2.51800       -0.56300
C          5.60500        3.55300       -0.82200
H          5.33700        3.74000       -1.86100
H          6.66800        3.74900       -0.68500
C          4.81700        4.47500        0.07800
O          5.39300        5.27300        0.80900
N          3.48400        4.37400        0.03800
H          3.08400        3.68900       -0.58400
C          2.59000        5.20300        0.86600
H          2.91400        6.23900        0.74800
C          1.13800        5.14300        0.34000
H          0.54400        5.86200        0.90600
H          1.14100        5.49900       -0.69200
C          0.44500        3.75800        0.36000
H          0.20700        3.47700       -0.66600
H          1.11800        2.99500        0.75200
C         -0.86200        3.74600        1.17400
H         -1.56400        4.44200        0.70900
H         -1.28700        2.74100        1.13400
N         -0.63600        4.12800        2.58100
H          0.32800        4.08900        2.90400
C         -1.52600        4.54500        3.46000
N         -1.14100        5.02700        4.60400
H         -1.80100        5.35800        5.27800
H         -0.14600        5.18600        4.76500
N         -2.80700        4.50600        3.21900
H         -3.46400        4.82500        3.90600
H         -3.12000        4.11400        2.35100
C          2.74200        4.87600        2.36200
O          2.14400        3.92600        2.86200
N          3.53800        5.67100        3.07400
H          4.07300        6.35300        2.55700
C          3.87100        5.47000        4.48900
H          4.34600        4.49200        4.58100
C          4.91000        6.54100        4.87000
H          5.65900        6.63200        4.08000
H          4.41100        7.50500        4.98700
S          5.76100        6.11300        6.41700
H          6.68100        5.29000        5.89700
C          2.63300        5.46500        5.42400
O          1.51400        5.80600        5.03400
N          2.79300        5.05600        6.67500
H          2.00200        5.06300        7.29800
H          3.71600        4.82700        7.01200
