52
1 1
H          3.26700        1.59900       -0.22300
C          3.54100        1.13500       -1.16900
H          2.73200        0.49700       -1.51800
H          4.44100        0.53500       -1.03000
C          3.81900        2.20600       -2.19700
O          4.92300        2.29100       -2.72300
N          2.82100        3.04500       -2.49200
H          1.94600        2.92500       -2.00400
C          2.95200        4.15800       -3.44800
H          3.51900        3.78900       -4.30500
C          1.55400        4.58400       -3.95200
H          0.94500        3.68700       -4.08100
H          1.05700        5.20200       -3.20200
C          1.55300        5.31800       -5.30800
H          1.90900        4.62900       -6.07600
H          0.52100        5.57800       -5.54500
C          2.40600        6.59600       -5.36600
H          2.11700        7.25800       -4.54700
H          3.45200        6.31800       -5.24400
N          2.23500        7.30600       -6.64900
H          1.36500        7.15800       -7.13000
C          3.09800        8.13500       -7.21300
N          2.80700        8.70200       -8.35000
H          1.92900        8.51600       -8.79900
H          3.46200        9.33200       -8.77500
N          4.25400        8.42700       -6.68900
H          4.89400        9.04900       -7.14000
H          4.53000        8.01000       -5.80000
C          3.76500        5.30800       -2.83300
O          3.20500        6.30200       -2.38200
N          5.09200        5.18200       -2.85200
H          5.46200        4.28000       -3.13200
C          6.03100        6.22000       -2.39700
H          5.84600        6.39500       -1.33700
C          7.49400        5.73400       -2.55700
H          7.68000        5.58600       -3.62300
C          8.50600        6.78600       -2.06500
H          9.51700        6.37700       -2.11000
H          8.48100        7.66800       -2.70300
H          8.29100        7.07600       -1.03600
C          7.77300        4.37800       -1.86200
H          7.19900        3.59700       -2.35900
H          8.82500        4.12400       -2.00200
C          7.46300        4.32200       -0.35900
H          7.72600        3.33500        0.02200
H          8.04600        5.06900        0.17900
H          6.40100        4.48800       -0.18300
C          5.78300        7.55500       -3.12900
O          5.48500        7.59000       -4.32400
N          5.89500        8.67700       -2.43100
H          6.12300        8.64000       -1.45000
H          5.72500        9.55500       -2.89100
