47
1 1
H          7.74100        1.71300       -4.54100
C          7.27900        2.05800       -3.61700
H          6.56300        1.31500       -3.26800
H          6.76300        3.00000       -3.80000
C          8.34400        2.26400       -2.56600
O          8.50700        3.37400       -2.05600
N          9.07100        1.19500       -2.22500
H          8.87400        0.31700       -2.69100
C         10.18600        1.19600       -1.26100
H         10.77800        2.09200       -1.43900
C          9.61500        1.19600        0.17900
H          8.67100        1.74200        0.19200
H          9.37800        0.17100        0.46900
C         10.51800        1.82300        1.26300
H          9.93600        1.86900        2.18500
H         11.37000        1.16800        1.45200
C         11.04500        3.24000        0.96100
H         11.30200        3.72100        1.90700
H         11.95800        3.15300        0.36800
N         10.06900        4.05200        0.20700
H          9.48600        3.55300       -0.45800
C          9.89000        5.35600        0.18900
N         10.53800        6.17300        0.97100
H         11.19900        5.79500        1.62500
H         10.37000        7.16100        0.92700
N          9.03400        5.84500       -0.65800
H          8.58300        5.19600       -1.29900
H          8.85500        6.82900       -0.71900
C         11.11600       -0.00100       -1.48300
O         10.71800       -0.99500       -2.07600
N         12.34300        0.10800       -0.98400
H         12.58800        0.95400       -0.49300
C         13.34900       -0.96200       -0.90600
H         12.85200       -1.89900       -0.65400
C         14.04800       -1.16500       -2.26400
H         13.29000       -1.35200       -3.02500
C         14.91200        0.01500       -2.71100
H         15.72500        0.18300       -2.00400
H         15.33600       -0.19400       -3.69300
H         14.30400        0.91600       -2.78100
O         14.88700       -2.29100       -2.19200
H         15.18200       -2.49900       -3.08400
C         14.33100       -0.63200        0.22900
O         14.28300        0.46600        0.78200
N         15.19900       -1.55400        0.62000
H         15.83700       -1.33600        1.36700
H         15.26400       -2.42000        0.10400
