44
1 1
H          3.82400       11.79500       -2.25200
C          3.50600       10.95100       -2.86300
H          3.05100       11.32400       -3.78000
H          2.77900       10.35200       -2.31700
C          4.70400       10.10100       -3.21500
O          5.00800        9.91900       -4.39100
N          5.38500        9.56200       -2.19500
H          5.04000        9.75200       -1.26500
C          6.58300        8.71000       -2.33500
H          7.31100        9.26000       -2.93300
C          7.19200        8.45400       -0.93200
H          6.99300        9.32500       -0.30400
H          6.68200        7.61600       -0.45500
C          8.71800        8.22000       -0.86300
H          9.21100        9.18600       -0.98200
H          8.95500        7.86400        0.14100
C          9.35500        7.25600       -1.87900
H          9.33300        7.73500       -2.85900
H         10.40000        7.09900       -1.60000
N          8.66600        5.95400       -1.95000
H          7.96000        5.76900       -1.25400
C          8.65300        5.15800       -3.00400
N          9.52400        5.25500       -3.96600
H         10.30900        5.87000       -3.87300
H          9.33400        4.77300       -4.83500
N          7.70500        4.28200       -3.15300
H          6.90400        4.32500       -2.54300
H          7.63300        3.80300       -4.03700
C          6.22000        7.41700       -3.08500
O          5.81200        6.42700       -2.47800
N          6.39300        7.42500       -4.40500
H          6.64600        8.31300       -4.81600
C          5.83300        6.42800       -5.33100
H          5.47600        5.56800       -4.76500
C          4.60100        7.02700       -6.03100
H          4.24600        6.33800       -6.79900
H          3.80400        7.17600       -5.30000
O          4.92500        8.27400       -6.62300
H          4.81200        8.97600       -5.95400
C          6.89000        5.88400       -6.30700
O          7.56000        4.89900       -5.99900
N          7.10200        6.51500       -7.45300
H          6.53200        7.32000       -7.68400
H          7.78300        6.15200       -8.10000
