40
0 1
H         15.12700        5.88600       -8.72600
C         15.19600        5.13400       -9.51000
H         14.35400        4.44700       -9.44400
H         16.12800        4.58100       -9.40100
C         15.18700        5.81400      -10.85800
O         16.14800        5.71900      -11.60800
N         14.10700        6.52900      -11.16500
H         13.36200        6.58900      -10.48600
C         13.94000        7.26800      -12.42600
H         14.26900        6.62800      -13.24700
C         12.44000        7.57200      -12.59900
H         12.26100        7.92100      -13.61600
H         11.85300        6.66700      -12.44700
C         11.97200        8.63300      -11.61700
O         11.77000        8.37900      -10.44000
N         11.86300        9.86800      -12.04500
H         12.18700       10.09900      -12.97100
H         11.61500       10.57500      -11.37300
C         14.76700        8.57500      -12.51500
O         14.57100        9.36000      -13.44100
N         15.58200        8.87000      -11.50000
H         15.76300        8.14800      -10.81600
C         16.19600       10.17400      -11.23900
H         16.61400       10.56300      -12.16800
C         15.12400       11.16000      -10.72500
H         15.58800       12.13100      -10.54500
H         14.38100       11.29800      -11.51200
C         14.40200       10.70700       -9.44100
H         14.11400        9.65900       -9.52000
H         15.07200       10.80700       -8.58700
C         13.14700       11.53200       -9.17600
O         13.18300       12.74000       -9.03900
N         11.98100       10.92500       -9.10700
H         11.90700        9.92100       -9.24900
H         11.19900       11.50000       -8.84800
C         17.33300       10.02700      -10.21500
O         17.33200        9.11200       -9.39800
N         18.30000       10.93400      -10.21900
H         18.28900       11.69000      -10.88200
H         19.03900       10.83900       -9.54100
