40
0 1
H          3.25300        9.56200        7.31300
C          3.40600        8.64700        7.88200
H          2.44900        8.15800        8.05700
H          3.87300        8.88400        8.83700
C          4.30900        7.71900        7.10700
O          5.40400        7.40400        7.55700
N          3.86400        7.30000        5.92400
H          2.94900        7.62200        5.63200
C          4.55800        6.37400        5.01200
H          4.93900        5.54400        5.60900
C          3.51400        5.80500        4.03000
H          3.99500        5.14000        3.31300
H          2.78300        5.21900        4.58700
C          2.76400        6.89700        3.28700
O          1.73900        7.37600        3.73600
N          3.28000        7.36700        2.17900
H          2.77900        8.10500        1.71900
H          4.21300        7.08000        1.91500
C          5.79300        6.98600        4.29900
O          5.95800        6.85200        3.08600
N          6.65200        7.68200        5.04600
H          6.46900        7.69600        6.04400
C          7.79500        8.48200        4.57300
H          7.48100        9.01700        3.67600
C          8.14400        9.53300        5.64500
H          8.44700        9.01700        6.55600
H          8.98100       10.14200        5.29900
C          6.96700       10.47300        5.95200
H          6.73600       11.03600        5.04700
H          6.08700        9.88900        6.21600
S          7.25700       11.65800        7.29400
C          7.26400       10.54300        8.72500
H          8.11300        9.86300        8.66300
H          7.34500       11.13000        9.64000
H          6.33900        9.96600        8.74800
C          9.02200        7.63800        4.15900
O         10.16100        7.96400        4.47000
N          8.82500        6.51800        3.47700
H          7.88800        6.27400        3.18700
H          9.62600        5.96700        3.21800
