37
0 1
H         12.96200       16.95100       -8.99700
C         11.95100       16.59800       -8.79300
H         11.25800       17.43700       -8.82800
H         11.91900       16.13000       -7.81200
C         11.56500       15.58500       -9.84400
O         12.35000       15.28600      -10.73500
N         10.34900       15.05300       -9.74600
H          9.73600       15.36700       -9.00700
C          9.79700       14.08700      -10.69700
H         10.17100       14.33600      -11.69200
C         10.30100       12.67800      -10.32200
H         11.39100       12.65400      -10.35200
H          9.97300       12.42700       -9.31300
C          9.76500       11.63100      -11.27500
O          8.85400       10.89200      -10.95700
N         10.19700       11.64800      -12.51300
H          9.68300       11.08400      -13.17700
H         10.95800       12.24200      -12.78900
C          8.25700       14.17300      -10.75700
O          7.62000       14.68400       -9.83900
N          7.66200       13.66100      -11.83800
H          8.24500       13.20700      -12.53100
C          6.21600       13.61200      -12.07600
H          5.79300       14.58900      -11.83800
C          6.00700       13.33300      -13.57500
H          4.94400       13.38400      -13.81000
H          6.51800       14.09200      -14.16600
C          6.54500       11.96900      -13.97000
O          7.72300       11.80100      -14.24200
N          5.71800       10.95100      -13.95900
H          4.77200       11.07600      -13.63900
H          6.10400       10.05000      -14.17700
C          5.44300       12.57700      -11.22200
O          4.23100       12.45800      -11.36500
N          6.09200       11.76900      -10.39500
H          5.56300       11.09800       -9.86600
H          7.10200       11.77800      -10.35700
