40
0 1
H         -0.62100       18.19400        1.91900
C         -1.25100       17.91700        2.76300
H         -2.11100       18.58100        2.81900
H         -0.67500       17.98500        3.68500
C         -1.72600       16.49500        2.58700
O         -1.42500       15.63500        3.40100
N         -2.45400       16.23500        1.50400
H         -2.63200       16.98500        0.84900
C         -2.97600       14.90500        1.15600
H         -3.39700       14.44800        2.05400
C         -4.09400       15.09600        0.11500
H         -4.62400       14.15300       -0.02000
H         -4.81100       15.83900        0.46400
C         -3.52700       15.55000       -1.22000
O         -3.08200       16.67600       -1.36800
N         -3.45200       14.66900       -2.18800
H         -3.69500       13.71000       -2.01200
H         -2.93600       14.93100       -3.02300
C         -1.90700       13.93000        0.60600
O         -2.24400       12.81200        0.22000
N         -0.65900       14.38000        0.46200
H         -0.43400       15.28000        0.86100
C          0.39300       13.73000       -0.32300
H          0.35200       12.65500       -0.14100
C          0.14100       13.98400       -1.82500
H          0.87300       13.42900       -2.41200
H         -0.84200       13.57900       -2.06600
C          0.20300       15.47400       -2.23400
H         -0.24900       16.09400       -1.46000
H          1.24800       15.77100       -2.32600
C         -0.52400       15.80200       -3.53800
O         -1.32400       15.04900       -4.07000
N         -0.29300       16.96400       -4.10400
H          0.31400       17.63300       -3.67000
H         -0.82000       17.15900       -4.93600
C          1.77800       14.24200        0.09900
O          1.93200       15.39000        0.50400
N          2.81200       13.42100       -0.02200
H          2.67900       12.48200       -0.35900
H          3.71900       13.75900        0.25300
