37
0 1
H          2.32400       12.68200       -2.09700
C          2.38400       11.59500       -2.11000
H          3.17700       11.28200       -2.78800
H          1.43200       11.17800       -2.43500
C          2.70200       11.10200       -0.72000
O          2.96100       11.89500        0.17700
N          2.70600        9.78200       -0.53600
H          2.42400        9.19300       -1.31000
C          2.94300        9.12900        0.76200
H          2.21200        9.51700        1.47300
C          2.71900        7.61200        0.60900
H          3.48000        7.19900       -0.05400
H          2.83100        7.13500        1.58200
C          1.36000        7.26500        0.03000
O          1.10500        7.44100       -1.14800
N          0.44200        6.77400        0.82900
H         -0.44200        6.55900        0.40400
H          0.63300        6.62900        1.80300
C          4.33300        9.41100        1.36900
O          4.54500        9.16200        2.55200
N          5.27200        9.93400        0.57700
H          5.02000       10.11600       -0.38600
C          6.58500       10.41500        1.01500
H          6.97800        9.72600        1.76500
C          7.51600       10.39900       -0.20900
H          8.52500       10.67700        0.09400
H          7.55300        9.39500       -0.63000
C          7.02700       11.35300       -1.28300
O          6.14500       11.03600       -2.06300
N          7.53400       12.56200       -1.31500
H          7.16600       13.18700       -2.00900
H          8.17700       12.85400       -0.59800
C          6.55700       11.81900        1.66700
O          7.60900       12.36900        1.97500
N          5.40400       12.45700        1.82300
H          5.41500       13.37400        2.23600
H          4.54100       12.04800        1.49000
