40
0 1
H         11.13800       15.50900        2.54400
C         10.07400       15.55700        2.32100
H          9.83200       14.84000        1.53700
H          9.80600       16.56000        1.99200
C          9.28400       15.21400        3.56100
O          8.50700       14.26600        3.55800
N          9.45300       16.00600        4.61900
H         10.07200       16.79400        4.52100
C          8.76400       15.81600        5.90700
H          8.97100       14.79900        6.24800
C          9.36800       16.81700        6.91600
H         10.42000       16.98000        6.68000
H          8.85100       17.77200        6.83700
C          9.32800       16.36800        8.37200
O         10.27800       16.55200        9.10800
N          8.27000       15.75300        8.84500
H          7.46000       15.58800        8.25700
H          8.30800       15.47300        9.80700
C          7.22600       15.95700        5.79600
O          6.50000       15.55600        6.70200
N          6.72900       16.52000        4.69300
H          7.39600       16.86000        4.00900
C          5.31300       16.62400        4.33900
H          4.75900       16.98700        5.20600
C          5.16100       17.64400        3.19100
H          5.67100       17.27600        2.29900
H          4.09900       17.71300        2.95300
C          5.65200       19.06900        3.51900
H          5.13600       19.75800        2.85000
H          5.36200       19.32800        4.53800
C          7.15500       19.31400        3.34700
O          7.96100       18.43600        3.08000
N          7.60500       20.53800        3.51100
H          6.97800       21.29100        3.72900
H          8.59100       20.67200        3.37500
C          4.67700       15.27700        3.93300
O          3.46100       15.18300        3.82000
N          5.45300       14.22600        3.69100
H          6.45900       14.29900        3.76400
H          5.01400       13.35800        3.43500
