34
0 1
H          7.50200        1.92600       -1.47700
C          7.04000        2.11600       -0.50900
H          7.69700        2.74300        0.09100
H          6.86400        1.17100        0.00200
C          5.72400        2.82600       -0.71800
O          5.36200        3.13200       -1.84800
N          5.01800        3.10900        0.37400
H          5.40800        2.82100        1.26300
C          3.70400        3.77100        0.41500
H          3.07200        3.30100       -0.34100
C          3.07100        3.48800        1.79300
H          2.12800        4.02500        1.89200
H          2.85600        2.42200        1.87200
C          3.98900        3.85700        2.94600
O          4.75900        3.04500        3.42400
N          3.98800        5.09300        3.37600
H          4.62500        5.31900        4.11800
H          3.47800        5.79100        2.85200
C          3.74200        5.28100        0.05700
O          3.27000        6.12700        0.81700
N          4.31600        5.62200       -1.09800
H          4.66800        4.86000       -1.66500
C          4.64300        6.98100       -1.55500
H          5.08600        7.51400       -0.71300
C          5.71400        6.88200       -2.65700
H          5.27900        6.44400       -3.55700
H          6.05700        7.88900       -2.90500
S          7.14000        5.88600       -2.12100
H          6.57500        4.67900       -2.28900
C          3.42900        7.83100       -2.00700
O          3.51900        8.60800       -2.95000
N          2.26600        7.68900       -1.38600
H          2.20900        7.09100       -0.57400
H          1.48600        8.24200       -1.69800
