40
0 1
H          3.29000        2.28800        1.87600
C          3.08900        3.26700        1.44000
H          2.40300        3.16200        0.60200
H          4.02300        3.71000        1.09900
C          2.47400        4.15600        2.49400
O          2.30600        3.74400        3.63100
N          2.09600        5.37100        2.10900
H          2.21300        5.62100        1.13600
C          1.54500        6.40700        2.99700
H          2.20800        6.50300        3.85900
C          1.55500        7.73600        2.21900
H          1.29800        8.55500        2.89100
H          2.54800        7.93000        1.81300
C          0.55900        7.68500        1.07600
O          0.78800        7.03700        0.06500
N         -0.60400        8.25400        1.26000
H         -0.82500        8.65800        2.15300
H         -1.35000        7.94900        0.64200
C          0.12900        6.11200        3.55900
O         -0.43600        6.95700        4.25100
N         -0.46300        4.95600        3.24600
H          0.09800        4.28600        2.74600
C         -1.81000        4.52900        3.66000
H         -2.46200        5.40400        3.66500
C         -2.37600        3.52500        2.62600
H         -1.58200        2.85000        2.30000
H         -3.14800        2.91600        3.09700
C         -3.04400        4.17600        1.39900
H         -3.34200        3.38700        0.70900
H         -3.94900        4.68900        1.72900
C         -2.17900        5.17700        0.64000
O         -2.50900        6.34400        0.52100
N         -1.03100        4.78500        0.13000
H         -0.75900        3.82300        0.14800
H         -0.45700        5.52000       -0.27600
C         -1.81500        3.99500        5.11300
O         -2.27100        2.89600        5.40200
N         -1.27400        4.75400        6.05700
H         -0.90300        5.66200        5.81200
H         -1.25100        4.40500        7.00000
