40
0 1
H          7.21800        9.13100       -2.49000
C          7.08700        9.63000       -1.53100
H          6.28100        9.14400       -0.98300
H          6.84700       10.67900       -1.68900
C          8.36700        9.51900       -0.73800
O          9.36000        8.99700       -1.23200
N          8.35000       10.01700        0.49800
H          7.47700       10.39000        0.84700
C          9.53300       10.14000        1.36100
H         10.37200       10.43600        0.72800
C          9.28300       11.27500        2.36800
H         10.19500       11.47700        2.92900
H          9.00900       12.18600        1.83500
C          8.16700       10.93000        3.33400
O          7.00300       11.16100        3.06700
N          8.48000       10.32300        4.45300
H          7.72000       10.09200        5.06600
H          9.43500       10.05100        4.62600
C          9.97800        8.83800        2.07000
O         10.85100        8.89100        2.93800
N          9.38700        7.68200        1.75300
H          8.66700        7.71000        1.04100
C          9.80800        6.36000        2.25200
H         10.05200        6.48000        3.30800
C          8.62700        5.35500        2.20200
H          8.89600        4.48900        2.80900
H          7.77400        5.82800        2.69000
C          8.15100        4.82900        0.83100
H          8.81800        4.04200        0.48200
H          7.16200        4.38400        0.94600
C          8.07200        5.92700       -0.21500
O          7.17500        6.75200       -0.20300
N          9.07300        6.07100       -1.05200
H          9.10100        6.93600       -1.57800
H          9.88500        5.48000       -0.95000
C         11.11100        5.88000        1.56900
O         11.13900        4.93400        0.78900
N         12.21900        6.56500        1.81200
H         13.07200        6.28300        1.35800
H         12.17600        7.38100        2.40800
