40
0 1
H         -0.38900       24.04300       -6.34000
C          0.48100       24.08200       -5.68700
H          1.05500       24.98400       -5.89600
H          1.10800       23.20700       -5.85000
C          0.02900       24.11300       -4.24800
O          0.34800       25.03800       -3.51600
N         -0.69800       23.08100       -3.82400
H         -0.89900       22.33400       -4.47500
C         -1.21000       22.93800       -2.45200
H         -1.63700       23.89300       -2.14000
C         -2.32500       21.87600       -2.47800
H         -2.82400       21.84900       -1.50900
H         -3.06800       22.13400       -3.23200
C         -1.76600       20.50000       -2.79400
O         -1.53000       20.15800       -3.93900
N         -1.46700       19.70800       -1.79300
H         -1.01600       18.83700       -2.01800
H         -1.54000       20.05100       -0.84900
C         -0.13400       22.56200       -1.40500
O         -0.47400       22.27600       -0.25700
N          1.13100       22.44200       -1.81300
H          1.35200       22.74600       -2.75100
C          2.23700       21.87300       -1.03700
H          2.22100       22.30000       -0.03400
C          2.06700       20.34300       -0.92800
H          2.90000       19.92800       -0.36000
H          1.15400       20.13300       -0.37000
C          1.98500       19.62400       -2.28300
H          1.26200       20.13600       -2.91600
H          2.95700       19.66900       -2.77600
S          1.46600       17.89200       -2.15900
C          1.18800       17.54700       -3.91600
H          2.11300       17.70100       -4.47100
H          0.86300       16.51400       -4.03800
H          0.41700       18.21400       -4.30500
C          3.57900       22.22200       -1.69600
O          3.66000       22.41200       -2.90500
N          4.65600       22.28500       -0.92500
H          4.58600       22.12500        0.06500
H          5.53600       22.51100       -1.36100
