34
0 1
H         12.37900        8.43200        4.39500
C         12.91900        8.09200        3.51400
H         12.55300        7.11100        3.21600
H         13.98500        8.03400        3.72800
C         12.69000        9.06400        2.38000
O         12.16300        8.68600        1.34300
N         13.08700       10.31800        2.58300
H         13.54400       10.54500        3.45400
C         13.00500       11.39500        1.59300
H         13.20400       10.97900        0.60200
C         11.57400       11.97700        1.60700
H         10.85200       11.17300        1.46800
H         11.39100       12.44300        2.57500
C         11.33100       13.00000        0.50800
O         11.94500       12.98100       -0.54600
N         10.46300       13.95600        0.73000
H         10.38500       14.65600        0.01500
H         10.00700       14.03600        1.61800
C         14.07000       12.47300        1.88100
O         14.61200       12.53700        2.98500
N         14.35000       13.34100        0.90800
H         13.80600       13.27100        0.05500
C         15.13400       14.55500        1.11900
H         16.07800       14.28200        1.59300
C         15.43900       15.17300       -0.25300
H         15.96900       14.44100       -0.86500
H         14.50500       15.43800       -0.75300
S         16.47600       16.65300       -0.07700
H         15.51100       17.48400        0.33800
C         14.39400       15.53500        2.05300
O         13.19200       15.75100        1.92700
N         15.09700       16.17000        2.98100
H         16.08300       15.99400        3.08000
H         14.61100       16.80300        3.59500
