33
-2 1
H          4.87800       11.31800        2.42400
C          4.85400       10.26400        2.16200
H          3.81900        9.92400        2.12000
H          5.40700        9.67200        2.88700
C          5.46600       10.08100        0.79500
O          5.84000       11.05600        0.15000
N          5.58900        8.82800        0.37100
H          5.25000        8.06600        0.95500
C          5.98900        8.42600       -0.98400
H          6.69600        9.16800       -1.35400
C          6.74100        7.07300       -0.96600
H          6.84500        6.71300       -1.99100
H          7.75100        7.27800       -0.60600
C          6.18500        5.93000       -0.09100
O          5.25100        6.15300        0.71400
O          6.76100        4.82300       -0.20000
C          4.82300        8.45100       -1.99900
O          5.04900        8.28900       -3.19900
N          3.59500        8.73600       -1.55100
H          3.47700        8.89600       -0.55600
C          2.46700        9.14200       -2.39900
H          2.45600        8.51400       -3.28900
C          1.13600        8.93000       -1.64600
H          0.31800        9.19800       -2.31800
H          1.03600        7.86600       -1.42700
C          0.96400        9.70700       -0.32600
O          1.97400       10.18400        0.24400
O         -0.20300        9.80800        0.11700
C          2.57900       10.60700       -2.87700
O          2.01700       10.98600       -3.90400
N          3.31900       11.45500       -2.17200
H          3.71800       11.13800       -1.29800
H          3.39000       12.40900       -2.47200
