45
0 1
H          1.65800        7.46000        4.58300
C          1.17200        7.88800        5.45800
H          0.11500        7.62800        5.45200
H          1.29300        8.96900        5.45200
C          1.81400        7.32000        6.69900
O          1.14400        6.67000        7.49000
N          3.09400        7.63000        6.88100
H          3.50500        8.29400        6.23300
C          3.99700        7.16900        7.95400
H          4.22900        6.11600        7.79800
C          5.30500        7.98200        7.85100
H          5.95900        7.71900        8.68400
H          5.81600        7.70600        6.92700
C          5.06000        9.49800        7.83800
O          5.30400       10.15900        8.86600
O          4.47000       10.02100        6.86400
C          3.40600        7.29800        9.37400
O          3.59700        6.42200       10.21300
N          2.62500        8.35600        9.61100
H          2.59200        9.04100        8.87100
C          1.67700        8.48900       10.73000
H          1.34100        7.47900       10.97400
C          2.35100        9.02200       12.01600
H          1.57500        9.33700       12.71500
H          2.85300        8.17200       12.48100
C          3.40700       10.13800       11.91600
H          3.73600       10.35500       12.93200
H          4.28000        9.76800       11.37500
C          2.93500       11.45900       11.29400
H          1.90600       11.65800       11.58800
H          3.55600       12.25900       11.70200
N          3.11500       11.46100        9.83300
H          4.01400       11.09700        9.50300
C          2.32200       11.93200        8.89600
N          1.12200       12.36700        9.15500
H          0.73500       12.10400       10.05300
H          0.53700       12.71400        8.42600
N          2.71300       11.93500        7.65800
H          3.57300       11.41900        7.42100
H          2.14900       12.29300        6.91900
C          0.40500        9.21400       10.28600
O          0.03600       10.27400       10.78500
N         -0.24000        8.69100        9.25600
H          0.11500        7.84300        8.82700
H         -1.08800        9.12500        8.93800
