45
-1 1
H          9.58000       10.08900       -7.41600
C          8.60500       10.45700       -7.10400
H          7.85100       10.16400       -7.83200
H          8.62400       11.54100       -7.01100
C          8.25100        9.85000       -5.77000
O          8.98600        9.01600       -5.25800
N          7.11100       10.25700       -5.22500
H          6.53000       10.91300       -5.74400
C          6.51700        9.73700       -3.98300
H          7.24200        9.82300       -3.17400
C          5.28100       10.59300       -3.63200
H          4.75700       10.13200       -2.79300
H          5.62900       11.57200       -3.29800
C          4.30500       10.81100       -4.80300
O          4.71500       11.43600       -5.81300
O          3.16100       10.32300       -4.70400
C          6.13400        8.24700       -4.09700
O          6.33000        7.46600       -3.16800
N          5.66100        7.84400       -5.27500
H          5.48000        8.57100       -5.95600
C          5.42700        6.46400       -5.72500
H          5.02000        5.88900       -4.89300
C          4.37300        6.51600       -6.85100
H          4.40000        5.59900       -7.44100
H          3.38900        6.56900       -6.38400
C          4.51500        7.70100       -7.76100
C          3.86300        8.87000       -7.57900
H          3.14100        9.06300       -6.78900
N          4.39700        9.83700       -8.39900
H          4.22000       10.82000       -8.22300
C          5.38200        9.32200       -9.21400
C          6.21600        9.89200      -10.18700
H          6.11700       10.93700      -10.43800
C          7.18100        9.08700      -10.81700
H          7.83300        9.51000      -11.56900
C          7.30800        7.73300      -10.45700
H          8.05900        7.11900      -10.93400
C          6.47200        7.17300       -9.47000
H          6.58700        6.13600       -9.18600
C          5.48200        7.94900       -8.82800
C          6.71400        5.73500       -6.17100
O          6.65900        4.61600       -6.67200
N          7.89200        6.32900       -6.02600
H          8.71800        5.84000       -6.31900
H          7.95400        7.24100       -5.59300
