41
-1 1
H          9.28100       11.06400        0.09200
C          8.47100       11.24800        0.79600
H          7.68900       11.83600        0.32000
H          8.84800       11.77600        1.67000
C          7.89200        9.92500        1.23500
O          8.36300        8.87800        0.81200
N          6.86900        9.99100        2.07900
H          6.50900       10.90500        2.34400
C          6.07800        8.85100        2.56400
H          6.74100        8.03800        2.85900
C          5.26200        9.31900        3.78400
H          4.72600        8.46500        4.20200
H          5.94300        9.69300        4.55100
C          4.26500       10.42600        3.40900
O          3.04800       10.15100        3.47000
O          4.73000       11.49500        2.94700
C          5.09200        8.31400        1.50900
O          4.78600        7.12500        1.50500
N          4.57700        9.21100        0.65500
H          4.83600       10.17100        0.83600
C          3.54500        8.98000       -0.36700
H          3.17800        9.97300       -0.62000
C          4.16100        8.43100       -1.67100
H          3.38500        8.41300       -2.43700
H          4.91200        9.14400       -2.01200
C          4.80900        7.05600       -1.61600
C          4.04500        5.89900       -1.86100
H          2.98600        5.98600       -2.05400
C          4.65200        4.63000       -1.83600
H          4.05600        3.74600       -2.00700
C          6.02700        4.51300       -1.56600
H          6.49000        3.53800       -1.52700
C          6.79400        5.66600       -1.32300
H          7.84600        5.58200       -1.09000
C          6.18700        6.93400       -1.35300
H          6.77800        7.81400       -1.14200
C          2.27100        8.25200        0.12600
O          1.54300        7.64500       -0.65700
N          1.92800        8.34700        1.40600
H          1.10700        7.86600        1.72300
H          2.48600        8.89800        2.05200
