28
-1 1
H          4.71600        5.98700       -4.35500
C          4.41000        6.34800       -3.37500
H          3.60300        5.73100       -2.98700
H          4.08300        7.38300       -3.44500
C          5.58700        6.26800       -2.43400
O          6.66700        5.85500       -2.83400
N          5.36300        6.66900       -1.18900
H          4.42500        6.95500       -0.92700
C          6.31700        6.58100       -0.07300
H          7.32700        6.75500       -0.44500
C          5.97500        7.67800        0.95800
H          6.67700        7.60100        1.79000
H          6.13500        8.64900        0.48600
C          4.53800        7.64800        1.51600
O          4.29600        8.36100        2.50900
O          3.68400        6.90100        0.97400
C          6.30900        5.20200        0.61900
O          7.34100        4.74500        1.10900
N          5.14500        4.54500        0.66200
H          4.34300        5.08100        0.34600
C          4.88700        3.33300        1.44700
H          4.26000        2.66600        0.85900
H          5.82800        2.82300        1.65600
C          4.17900        3.58900        2.78700
O          4.03300        2.67000        3.58700
N          3.71500        4.80200        3.06400
H          3.79500        5.55500        2.38800
H          3.27400        4.96400        3.95200
