38
-1 1
H          2.39500        3.76400       -1.26800
C          2.52700        4.67500       -1.84600
H          1.63200        4.87500       -2.43200
H          3.38100        4.56600       -2.51100
C          2.78500        5.83200       -0.90200
O          3.82600        6.46400       -1.00400
N          1.87600        6.14600        0.01700
H          2.06800        6.96400        0.58900
C          0.52100        5.59100        0.15200
H          0.55600        4.51600       -0.02000
C         -0.02300        5.78700        1.58700
H         -1.05500        5.43400        1.61300
H          0.55500        5.14200        2.25200
C          0.02800        7.21300        2.16400
O         -0.62700        7.43200        3.20900
O          0.68800        8.08700        1.55400
C         -0.42900        6.17400       -0.91000
O         -0.96600        5.42000       -1.72000
N         -0.56500        7.50300       -0.98400
H         -0.13000        8.05100       -0.24300
C         -1.37000        8.19500       -2.01400
H         -2.24800        7.57900       -2.21900
C         -1.88300        9.55100       -1.49000
H         -1.04900       10.25100       -1.43600
H         -2.62100        9.95000       -2.18700
C         -2.51400        9.44300       -0.12800
N         -3.71200        8.78500        0.16100
C         -3.69300        8.57300        1.48600
H         -4.41900        7.97400        2.01700
N         -2.57400        9.07600        2.03400
H         -2.14800        8.73300        2.89800
C         -1.83700        9.65700        1.03300
H         -0.81000        9.98700        1.11600
C         -0.63600        8.36300       -3.35600
O         -1.20000        8.85700       -4.32700
N          0.63200        7.98200       -3.44700
H          1.08500        7.58500       -2.63900
H          1.10800        8.09500       -4.32400
