35
-1 1
H          6.36000        6.78900       -8.20900
C          6.76700        6.60100       -9.20000
H          6.52400        7.42600       -9.86700
H          6.36200        5.67200       -9.59600
C          8.26800        6.47800       -9.10000
O          8.99100        7.25200       -9.71300
N          8.72100        5.50400       -8.32000
H          8.05300        4.88500       -7.86800
C         10.12900        5.11500       -8.16500
H         10.76000        6.00500       -8.17500
C         10.29200        4.39400       -6.81100
H         11.35400        4.19400       -6.65200
H          9.95500        5.05500       -6.01100
C          9.50600        3.07300       -6.73500
O          8.32100        3.06300       -7.14700
O         10.12900        2.05200       -6.38000
C         10.60600        4.17300       -9.28800
O         11.74100        4.27500       -9.74900
N          9.73800        3.24200       -9.70900
H          8.87100        3.18800       -9.18300
C         10.04200        2.13800      -10.62700
H          9.15500        1.50400      -10.62500
C         10.19700        2.69900      -12.06000
H          9.55900        3.57500      -12.17500
H         11.22900        3.01400      -12.21500
C          9.80400        1.71700      -13.15200
O          8.85700        1.91500      -13.89300
N         10.49500        0.61300      -13.28700
H         10.20800       -0.02500      -14.00100
H         11.24500        0.43000      -12.62500
C         11.19700        1.22200      -10.13200
O         11.91400        0.61100      -10.92500
N         11.40400        1.08000       -8.82900
H         12.16700        0.50600       -8.51900
H         10.81400        1.54600       -8.14500
