31
-1 1
H          1.32900        1.78700        8.86600
C          1.69300        2.29500        7.97500
H          0.85700        2.57000        7.33500
H          2.37800        1.64900        7.43000
C          2.42500        3.54800        8.39000
O          2.53900        3.82900        9.57500
N          2.91900        4.28500        7.40200
H          2.75200        3.99600        6.44200
C          3.56700        5.59500        7.54800
H          4.18600        5.60300        8.44600
C          4.46000        5.83700        6.31500
H          5.01700        6.76400        6.46600
H          5.18300        5.02400        6.23100
C          3.65600        5.93000        5.00600
O          2.78800        5.05200        4.78200
O          3.83000        6.94000        4.29500
C          2.55100        6.75100        7.65300
O          2.77700        7.70900        8.38900
N          1.44900        6.65900        6.89600
H          1.43100        5.87500        6.25300
C          0.44000        7.70500        6.70200
H         -0.22700        7.33200        5.92600
C         -0.41000        7.85100        7.97500
H         -0.78500        6.87500        8.28500
H          0.19500        8.27600        8.77700
H         -1.25400        8.51300        7.78000
C          0.98400        9.04400        6.13800
O          0.37000       10.09600        6.30900
N          2.10700        9.04800        5.42900
H          2.45200        9.92300        5.07900
H          2.60200        8.18700        5.22200
