35
-1 1
H          7.12600        1.97400        0.39800
C          7.78400        2.62900       -0.17000
H          7.49400        2.63000       -1.21900
H          8.81500        2.29600       -0.07000
C          7.66900        4.03400        0.37300
O          8.65700        4.59600        0.82400
N          6.45800        4.57600        0.32800
H          5.68900        4.02000       -0.01300
C          6.09700        5.91300        0.81400
H          6.71000        6.15900        1.68300
C          6.38500        6.96100       -0.28600
H          7.45600        6.97300       -0.49800
H          5.86300        6.66600       -1.19800
C          5.94600        8.37800        0.11100
O          6.25700        8.79700        1.25200
O          5.14600        8.96900       -0.64100
C          4.61600        5.94400        1.25800
O          3.84100        5.03100        0.96800
N          4.23400        7.02200        1.93900
H          4.95900        7.72000        2.07700
C          2.87500        7.43800        2.27900
H          2.44600        6.72300        2.98100
C          2.97500        8.82700        2.94500
H          3.26200        9.56300        2.19200
H          1.99400        9.10600        3.32900
C          3.97300        8.91500        4.08800
O          3.63800        8.73100        5.24600
N          5.22400        9.21400        3.81700
H          5.86100        9.24300        4.58700
H          5.55600        9.30100        2.85000
C          1.93500        7.53500        1.05700
O          0.73500        7.31000        1.17800
N          2.43500        7.89500       -0.12200
H          1.81600        7.95000       -0.91000
H          3.41300        8.15500       -0.21200
