38
-1 1
H          2.72600        8.49100       -1.19100
C          2.09100        8.59000       -0.31200
H          1.22300        7.94000       -0.40400
H          1.77800        9.62600       -0.20700
C          2.88700        8.19200        0.90500
O          3.13200        9.01700        1.77900
N          3.29300        6.92800        0.95400
H          3.08300        6.31200        0.17300
C          4.19300        6.36600        1.96900
H          3.97000        6.80900        2.94000
C          3.96900        4.84300        2.05700
H          4.55800        4.45500        2.89000
H          2.91700        4.64800        2.27400
C          4.35900        4.10300        0.76700
O          3.98700        4.58800       -0.32700
O          5.14000        3.13600        0.87500
C          5.67400        6.64700        1.64400
O          6.43900        7.05100        2.51900
N          6.06800        6.48900        0.37200
H          5.36700        6.10000       -0.25500
C          7.45800        6.51700       -0.10600
H          7.41300        6.23800       -1.15900
C          8.06400        7.94000       -0.05600
H          8.17000        8.27200        0.97600
H          9.07200        7.87800       -0.46900
C          7.32000        9.00300       -0.89000
H          8.00100        9.84100       -1.03000
H          7.09500        8.59000       -1.87300
C          6.03500        9.58000       -0.29200
O          5.16700       10.04200       -1.01400
N          5.84400        9.58600        1.00800
H          6.44600        9.03700        1.60500
H          4.90100        9.79700        1.31500
C          8.36700        5.44100        0.53800
O          9.58100        5.60600        0.62500
N          7.82600        4.31200        0.98400
H          8.42400        3.62700        1.40700
H          6.83400        4.12200        0.87600
