41
-1 1
H          3.61900        4.41800        4.19100
C          3.27200        5.44600        4.10600
H          2.33600        5.57300        4.64600
H          3.13100        5.70200        3.05700
C          4.31000        6.36900        4.69400
O          4.01200        7.13000        5.60500
N          5.51700        6.31600        4.14500
H          5.63800        5.75700        3.30600
C          6.61400        7.25700        4.42100
H          6.78300        7.30400        5.49700
C          7.90800        6.75700        3.74300
H          8.68500        7.51100        3.88300
H          8.23300        5.85700        4.26900
C          7.80900        6.41400        2.24300
O          8.87500        6.12800        1.66100
O          6.68200        6.40600        1.69000
C          6.27900        8.68400        3.95000
O          6.60100        9.66000        4.62500
N          5.55200        8.80300        2.83700
H          5.45000        7.95800        2.28000
C          4.92700       10.04000        2.35600
H          5.68700       10.82100        2.35600
C          4.46400        9.81900        0.90500
H          4.07400       10.75900        0.51400
H          5.33500        9.56100        0.30000
C          3.40700        8.74000        0.72800
C          2.04400        9.04000        0.92300
H          1.74800       10.04400        1.19400
C          1.06900        8.03600        0.77900
H          0.02700        8.27100        0.93900
C          1.45200        6.72800        0.43300
H          0.70500        5.95500        0.32400
C          2.81000        6.42700        0.22800
H          3.11400        5.42400       -0.03700
C          3.78400        7.43000        0.37300
H          4.82800        7.19000        0.21800
C          3.76900       10.55200        3.24400
O          3.16200       11.57700        2.94500
N          3.40500        9.86800        4.32400
H          2.65700       10.22400        4.89100
H          3.91100        9.03500        4.59300
