38
-1 1
H          7.63100        4.27600        4.31000
C          6.69000        4.77500        4.53100
H          6.29400        4.42100        5.48100
H          5.97400        4.58000        3.73500
C          6.93100        6.26200        4.62100
O          6.69500        6.86200        5.66100
N          7.37100        6.84800        3.51400
H          7.39300        6.29800        2.66200
C          7.51900        8.29800        3.31900
H          8.16300        8.70100        4.10100
C          8.17900        8.56400        1.94700
H          8.20500        9.64300        1.78100
H          9.21400        8.22100        2.00400
C          7.52600        7.88700        0.72300
O          7.94900        8.22400       -0.40000
O          6.62700        7.02700        0.90300
C          6.16900        9.03100        3.41300
O          6.04900       10.05700        4.07800
N          5.13200        8.45500        2.80300
H          5.36300        7.68300        2.17900
C          3.72900        8.87200        2.90400
H          3.70200        9.95900        2.82200
C          2.96600        8.29000        1.70100
H          1.96700        8.72500        1.66000
H          3.49200        8.58000        0.79100
C          2.83700        6.75900        1.74800
H          3.78700        6.32200        2.05700
H          2.08900        6.50000        2.49800
S          2.36300        5.98900        0.17500
C          3.94800        6.10100       -0.70700
H          3.84800        5.66700       -1.70000
H          4.25700        7.14200       -0.80200
H          4.71700        5.56000       -0.15400
C          3.06300        8.51600        4.25100
O          1.85300        8.65500        4.40500
N          3.80000        8.03000        5.24300
H          4.80200        7.94600        5.13600
H          3.35200        7.81100        6.11500
