40
-1 1
H          9.21300        2.65700       -1.40500
C          9.09300        3.70600       -1.14500
H         10.04600        4.22500       -1.23300
H          8.71300        3.79400       -0.12900
C          8.10300        4.33600       -2.09300
O          8.44500        5.26700       -2.81000
N          6.88100        3.81800       -2.08500
H          6.66800        3.07600       -1.42300
C          5.71800        4.35300       -2.80600
H          6.01500        4.66100       -3.80800
C          4.64900        3.24500       -2.90800
H          3.82200        3.61600       -3.51500
H          5.07800        2.38300       -3.42200
C          4.11700        2.79300       -1.53600
O          2.88100        2.79800       -1.36900
O          4.94700        2.55700       -0.62500
C          5.10000        5.57000       -2.09100
O          4.69200        6.53300       -2.73700
N          5.03900        5.51800       -0.75300
H          5.31900        4.63300       -0.34000
C          4.37300        6.49700        0.12400
H          4.40600        6.04800        1.11500
C          5.15700        7.84000        0.22400
H          4.84200        8.47900       -0.60300
C          4.81500        8.55000        1.55300
H          3.73800        8.61900        1.69200
H          5.24100        8.00000        2.39200
H          5.20400        9.56700        1.54700
C          6.69700        7.66000        0.12100
H          7.03100        6.95700        0.88500
H          6.94200        7.24100       -0.85500
C          7.51600        8.95200        0.24900
H          8.55800        8.73900        0.00900
H          7.13800        9.70100       -0.44800
H          7.46800        9.33700        1.26700
C          2.86100        6.64300       -0.19400
O          2.25400        7.69600       -0.01600
N          2.20200        5.59000       -0.66400
H          1.23100        5.69600       -0.89500
H          2.66700        4.70000       -0.81200
