32
-1 1
H          5.12300        8.07600       -4.35800
C          5.87400        8.30000       -3.60400
H          6.72100        8.80800       -4.06000
H          6.20500        7.37800       -3.12900
C          5.26500        9.20000       -2.55700
O          5.73200       10.31400       -2.35700
N          4.24400        8.69400       -1.87600
H          4.02100        7.71500       -2.00900
C          3.59200        9.33800       -0.72500
H          3.24100       10.32800       -1.02000
C          2.37200        8.49400       -0.29400
H          1.96000        8.92300        0.62100
H          1.61000        8.59500       -1.06900
C          2.61800        6.98700       -0.06900
O          1.62700        6.30000        0.24600
O          3.77200        6.51700       -0.23400
C          4.55900        9.53200        0.45700
O          4.58300       10.58500        1.09200
N          5.41300        8.53800        0.69800
H          5.21600        7.66700        0.21100
C          6.48900        8.54500        1.68600
H          6.09100        8.94400        2.62000
C          6.92200        7.08900        1.92200
H          7.31900        6.67000        0.99700
H          7.70700        7.07000        2.68000
S          5.52300        6.07300        2.49500
H          4.76300        6.13600        1.37800
C          7.69100        9.43800        1.29600
O          8.72100        9.42100        1.96300
N          7.62400       10.20000        0.20900
H          8.41200       10.77600       -0.02600
H          6.77000       10.23400       -0.33200
