37
-1 1
H          6.24700       -9.94200        1.35400
C          6.77900      -10.02000        2.29900
H          7.44800      -10.87800        2.27300
H          6.07000      -10.13600        3.11500
C          7.60100       -8.76500        2.51500
O          8.81800       -8.85100        2.59200
N          6.99600       -7.58400        2.60100
H          7.60100       -6.78000        2.68900
C          5.55600       -7.29100        2.52200
H          5.07700       -8.00600        1.85500
C          4.91500       -7.42600        3.91900
H          5.14000       -8.40900        4.33500
H          5.34100       -6.67100        4.58200
C          3.39200       -7.26300        3.86100
O          2.80100       -7.73500        2.86400
O          2.84600       -6.55700        4.73200
C          5.29500       -5.88300        1.93900
O          6.20000       -5.05000        1.87000
N          4.05200       -5.61600        1.52600
H          3.35800       -6.34600        1.68700
C          3.56400       -4.29000        1.10800
H          4.35900       -3.80900        0.53800
C          2.35300       -4.46900        0.16800
H          2.63100       -5.20100       -0.59200
C          1.09700       -4.99300        0.88000
H          1.32100       -5.92600        1.40000
H          0.73600       -4.26400        1.60600
H          0.31300       -5.18600        0.14900
C          1.98500       -3.17900       -0.57400
H          1.21800       -3.39100       -1.31900
H          1.60600       -2.43200        0.12300
H          2.86700       -2.78300       -1.07700
C          3.25300       -3.35700        2.29400
O          3.22900       -2.14000        2.13700
N          3.02300       -3.87100        3.49800
H          3.01100       -4.87400        3.65100
H          2.84300       -3.24600        4.26200
