37
-1 1
H          2.94900        7.20600        5.38400
C          3.81600        7.35100        4.74200
H          4.53000        6.54500        4.89400
H          4.28100        8.31000        4.95900
C          3.36200        7.34100        3.30200
O          2.17800        7.18500        3.03600
N          4.31700        7.49600        2.39200
H          5.27400        7.56300        2.70100
C          4.12800        7.51800        0.93600
H          3.27400        6.89000        0.67400
C          3.82000        8.96300        0.48200
H          2.96300        9.33300        1.04700
H          4.67800        9.59400        0.72200
C          3.49800        9.10100       -1.01400
O          3.07800        8.09500       -1.63500
O          3.73600       10.19700       -1.56000
C          5.37900        6.94700        0.23100
O          6.45000        6.84000        0.83500
N          5.24100        6.58500       -1.04500
H          4.32900        6.78000       -1.45700
C          6.31400        6.14700       -1.95600
H          7.27000        6.41500       -1.50700
C          6.30800        4.61400       -2.14400
H          7.14000        4.34800       -2.79600
C          6.52700        3.87000       -0.82000
H          5.67800        4.02500       -0.15300
H          6.64300        2.80300       -1.01000
H          7.42800        4.24600       -0.33600
C          5.01800        4.09300       -2.79400
H          4.88000        4.55700       -3.77100
H          5.08400        3.01400       -2.93000
H          4.15800        4.32300       -2.16500
C          6.27600        6.87000       -3.31400
O          7.11100        6.61100       -4.17500
N          5.33500        7.77700       -3.55300
H          4.63400        8.00300       -2.85400
H          5.33900        8.26000       -4.43300
