40
-1 1
H          5.56100        5.19000       -4.19500
C          4.69300        5.83000       -4.04900
H          3.77900        5.24900       -4.15100
H          4.70500        6.63700       -4.77900
C          4.74700        6.42300       -2.66300
O          3.85200        6.19500       -1.86100
N          5.80200        7.18400       -2.39800
H          6.47800        7.36100       -3.13700
C          6.01000        7.96300       -1.16900
H          5.77300        7.35200       -0.29800
C          7.49100        8.38600       -1.11200
H          7.67500        8.90100       -0.16700
H          8.12000        7.49500       -1.13500
C          7.87000        9.30400       -2.28400
O          7.70900        8.86000       -3.44600
O          8.20600       10.47600       -2.01500
C          5.14300        9.23600       -1.11800
O          4.74200        9.66500       -0.03900
N          4.89000        9.83700       -2.29000
H          5.35900        9.42800       -3.08700
C          4.18500       11.11200       -2.51500
H          4.42500       11.37800       -3.54300
C          2.64100       10.95800       -2.48500
H          2.23300       11.90500       -2.84300
C          2.18900        9.87400       -3.48300
H          1.10800        9.90200       -3.60500
H          2.65200       10.04800       -4.45400
H          2.47900        8.88600       -3.12000
C          2.04800       10.70700       -1.08000
H          2.23300        9.67400       -0.78400
H          2.54000       11.35800       -0.35700
C          0.54100       10.97900       -0.99400
H         -0.00900       10.28400       -1.62800
H          0.21100       10.84600        0.03600
H          0.33000       12.00300       -1.30400
C          4.73100       12.31400       -1.71100
O          4.02600       13.29600       -1.48500
N          5.99500       12.30100       -1.30800
H          6.34300       13.08100       -0.78100
H          6.60700       11.52400       -1.54100
