32
-1 1
H          7.17000        4.31000       -3.99100
C          6.13400        4.47000       -3.70200
H          5.59500        4.97000       -4.50500
H          6.09200        5.07200       -2.79600
C          5.48500        3.13400       -3.43300
O          4.51600        2.77900       -4.09000
N          6.03600        2.40500       -2.47100
H          6.82800        2.78400       -1.96100
C          5.51400        1.13300       -1.95400
H          5.08500        0.54900       -2.76900
C          6.68800        0.34800       -1.32700
H          6.33000       -0.64100       -1.03800
H          7.47100        0.21400       -2.07500
C          7.28600        1.05700       -0.09700
O          7.28700        0.43300        0.98500
O          7.56200        2.27800       -0.18300
C          4.42500        1.34500       -0.88200
O          3.39300        0.67600       -0.87900
N          4.69300        2.25900        0.05400
H          5.61000        2.68900       -0.01300
C          3.95100        2.46400        1.30100
H          2.88300        2.46400        1.08600
C          4.25800        1.31400        2.27700
H          3.57800        1.39700        3.12600
H          4.07300        0.35700        1.78800
O          5.58700        1.34200        2.77200
H          6.21300        0.97400        2.09700
C          4.31000        3.80300        1.96300
O          3.46000        4.45400        2.56300
N          5.54600        4.27500        1.82400
H          5.77900        5.14600        2.26600
H          6.25600        3.69600        1.39400
