43
0 1
H         10.21500        6.11700        4.08300
C         10.14300        5.43300        4.92600
H          9.46000        5.83500        5.67100
H         11.12700        5.28400        5.36700
C          9.61700        4.10600        4.43700
O         10.28400        3.08300        4.56700
N          8.42100        4.11500        3.85800
H          7.97300        5.00200        3.66200
C          7.85600        2.93400        3.20600
H          7.89400        2.10600        3.91600
C          6.38100        3.17400        2.83500
H          5.93900        2.21900        2.54600
H          5.84200        3.54000        3.71100
C          6.21900        4.17300        1.68700
O          6.78600        5.28400        1.75700
O          5.69000        3.77300        0.62600
C          8.69000        2.54700        1.96700
O          9.32600        3.39300        1.33100
N          8.66300        1.26400        1.58200
H          8.08000        0.64000        2.12100
C          9.49100        0.66700        0.50400
H          9.19000       -0.37500        0.40000
C          9.23600        1.34800       -0.86500
H          9.77900        2.29200       -0.87500
H          9.67600        0.73100       -1.65100
C          7.75600        1.60000       -1.21900
H          7.30800        0.65700       -1.53200
H          7.20500        1.93900       -0.34700
C          7.54400        2.64700       -2.32800
H          7.93700        2.24600       -3.26400
H          6.46800        2.77900       -2.45400
C          8.17500        4.03600       -2.09200
H          9.25900        3.95900       -2.20800
H          7.79900        4.71000       -2.86600
N          7.86400        4.59800       -0.75600
H          8.02400        5.58800       -0.66300
H          6.89200        4.43500       -0.47100
H          8.40000        4.15200       -0.01400
C         11.00200        0.61700        0.80500
O         11.74700        0.01900        0.04200
N         11.48400        1.19500        1.89700
H         12.47300        1.14300        2.06700
H         10.87800        1.73000        2.50100
