35
-1 1
H         -2.33600       -3.98000        4.29900
C         -3.16200       -3.71000        3.64300
H         -4.10500       -3.94800        4.13100
H         -3.08700       -4.25500        2.70600
C         -3.11700       -2.22100        3.36400
O         -4.06800       -1.52300        3.68300
N         -2.04900       -1.69900        2.76700
H         -2.03500       -0.68800        2.66800
C         -0.81300       -2.39600        2.38200
H         -1.05800       -3.35600        1.92800
C         -0.05400       -1.55600        1.32800
H          0.77700       -2.15300        0.94800
H         -0.72100       -1.34600        0.49100
C          0.48800       -0.23000        1.88500
O         -0.28800        0.48600        2.55900
O          1.71800       -0.02900        1.81500
C          0.09500       -2.66800        3.59900
O          0.48700       -3.80600        3.84700
N          0.39800       -1.61400        4.36100
H          0.02900       -0.72500        4.03100
C          1.41100       -1.55300        5.42400
H          1.44700       -2.51100        5.94300
C          2.81600       -1.24900        4.85900
H          3.50000       -1.22700        5.70800
C          3.35600       -2.28900        3.87900
H          4.39600       -2.06100        3.65000
H          3.29400       -3.28100        4.32600
H          2.78100       -2.27400        2.95300
O          2.88600        0.01300        4.23300
H          2.46600       -0.03300        3.34200
C          1.07700       -0.47300        6.45900
O          1.37800       -0.62900        7.63800
N          0.41100        0.61000        6.06900
H          0.22200        0.75700        5.08700
H          0.19300        1.31300        6.75300
