42
-1 1
H          1.27400        3.09500       -2.19900
C          2.24600        2.75800       -1.84600
H          2.83700        2.38800       -2.68200
H          2.11600        1.97500       -1.10100
C          2.96200        3.92600       -1.21200
O          3.26500        3.89100       -0.02700
N          3.22700        4.95000       -2.01400
H          2.92500        4.90900       -2.98400
C          3.74600        6.25400       -1.58100
H          4.49600        6.11400       -0.80200
C          4.39500        6.95700       -2.79100
H          4.86700        7.87800       -2.44600
H          5.17600        6.31500       -3.20200
C          3.37700        7.28300       -3.89600
O          3.26200        8.47800       -4.23600
O          2.63300        6.35900       -4.30300
C          2.63100        7.16000       -1.02200
O          2.84100        7.87300       -0.04200
N          1.45000        7.12200       -1.65300
H          1.42200        6.55700       -2.49500
C          0.28500        7.97200       -1.37500
H         -0.43700        7.74700       -2.15900
C         -0.38000        7.56500       -0.04600
H          0.28100        7.83400        0.78000
H         -1.29900        8.13800        0.07800
C         -0.71900        6.08700        0.05100
C         -1.94000        5.60900       -0.46500
H         -2.63800        6.30200       -0.91200
C         -2.24100        4.23300       -0.41300
H         -3.17300        3.87100       -0.81400
C         -1.31400        3.33200        0.15800
O         -1.59300        2.00200        0.19500
H         -2.41100        1.80300       -0.25800
C         -0.09500        3.81100        0.67700
H          0.62100        3.12000        1.09600
C          0.20000        5.18700        0.62400
H          1.15100        5.54900        0.99800
C          0.54900        9.48900       -1.51100
O         -0.16300       10.30900       -0.93400
N          1.53400        9.90900       -2.29700
H          2.09600        9.24900       -2.82800
H          1.70500       10.89500       -2.37200
