45
-1 1
H          5.67900        1.88200       -2.08100
C          6.03300        2.71000       -1.47100
H          6.53800        3.44400       -2.09600
H          6.71700        2.34600       -0.70600
C          4.85300        3.36800       -0.80000
O          3.72300        2.93100       -0.97600
N          5.12600        4.43500       -0.05900
H          6.06900        4.81200       -0.09400
C          4.13700        5.32200        0.56800
H          3.48400        4.72600        1.20700
C          4.85100        6.37500        1.45200
H          4.10600        7.08900        1.80800
H          5.24500        5.85800        2.32800
C          6.02100        7.15100        0.80800
O          6.38600        8.21400        1.35900
O          6.56300        6.68900       -0.22600
C          3.23600        6.00900       -0.47400
O          2.01500        6.02400       -0.32700
N          3.82300        6.50900       -1.56500
H          4.83700        6.54400       -1.55900
C          3.10000        7.07500       -2.71800
H          2.19100        7.54100       -2.33400
C          3.93900        8.19500       -3.35800
H          4.81600        7.75500       -3.83500
H          3.34700        8.69100       -4.12700
C          4.38700        9.22300       -2.36500
C          5.56500        9.18600       -1.70800
H          6.33100        8.43300       -1.85100
N          5.54200       10.07600       -0.65700
H          6.14300        9.92400        0.15500
C          4.38700       10.82800       -0.65700
C          3.90300       11.84200        0.18200
H          4.50200       12.18300        1.01300
C          2.63500       12.39300       -0.07100
H          2.24800       13.17500        0.56700
C          1.86300       11.91200       -1.14400
H          0.88300       12.32700       -1.32800
C          2.35000       10.87600       -1.96700
H          1.74200       10.49400       -2.77300
C          3.62600       10.31000       -1.75000
C          2.63000        6.01200       -3.73100
O          2.28200        6.32700       -4.86600
N          2.62300        4.73300       -3.37100
H          2.31000        4.04600       -4.03300
H          2.87800        4.47400       -2.42700
