40
-1 1
H         -9.18400       16.96500        0.89800
C         -8.72300       17.44200        0.03600
H         -7.72100       17.78300        0.28800
H         -9.33000       18.28400       -0.29200
C         -8.63000       16.44000       -1.09000
O         -9.19600       16.66200       -2.15200
N         -7.92500       15.34400       -0.83300
H         -7.53800       15.22200        0.09000
C         -7.69800       14.22500       -1.75600
H         -8.56800       14.10800       -2.40500
C         -6.47400       14.53100       -2.64300
H         -6.66300       15.43900       -3.21600
H         -5.60700       14.70500       -2.00200
C         -6.16500       13.39000       -3.61900
O         -4.98300       12.99600       -3.69000
O         -7.13100       12.82000       -4.17700
C         -7.51000       12.91000       -0.96600
O         -7.29100       12.93400        0.24800
N         -7.59300       11.76300       -1.64700
H         -7.69000       11.85000       -2.65900
C         -7.29400       10.43400       -1.10100
H         -7.70200       10.38800       -0.09100
C         -8.02800        9.38000       -1.95600
H         -7.99900        8.42300       -1.43500
H         -9.07600        9.67900       -2.00700
C         -7.47700        9.19900       -3.39000
H         -6.94100       10.09200       -3.70600
C         -6.53500        7.99500       -3.49300
H         -5.69200        8.12400       -2.81600
H         -7.06400        7.07800       -3.23600
H         -6.15000        7.92200       -4.51000
C         -8.62400        8.95900       -4.37500
H         -8.22100        8.83100       -5.37900
H         -9.19200        8.07500       -4.08800
H         -9.27700        9.83300       -4.38000
C         -5.78500       10.13500       -0.97400
O         -5.40200        9.20700       -0.26600
N         -4.90300       10.86900       -1.64300
H         -3.92600       10.65900       -1.54600
H         -5.20200       11.60200       -2.27800
