32
-1 1
H          4.51000        9.66200       -0.36100
C          4.80900       10.68600       -0.14500
H          4.47600       10.96700        0.85200
H          4.38600       11.36400       -0.88200
C          6.31500       10.77700       -0.19800
O          6.98200        9.78200       -0.44900
N          6.83200       11.97800        0.02800
H          6.20800       12.75300        0.23500
C          8.26300       12.28200        0.16300
H          8.84100       11.64700       -0.51000
C          8.48700       13.76000       -0.21800
H          9.56100       13.95900       -0.21800
H          8.11700       13.92900       -1.23000
C          7.78500       14.73500        0.74300
O          8.48700       15.61900        1.27500
O          6.58600       14.51700        1.04000
C          8.77700       12.05900        1.59900
O          9.89800       11.59400        1.79500
N          7.96000       12.42100        2.59700
H          7.09900       12.87500        2.31200
C          8.30900       12.47100        4.02100
H          7.47800       12.96500        4.52100
C          8.39400       11.04500        4.59700
H          9.14600       10.48200        4.04100
H          8.70200       11.09100        5.64200
S          6.78500       10.20400        4.47600
H          6.11800       11.01900        5.29700
C          9.53400       13.35600        4.36000
O         10.18800       13.15300        5.38100
N          9.85400       14.36700        3.56100
H          9.29100       14.59100        2.74500
H         10.65600       14.92500        3.78700
