31
-1 1
H          4.78500        7.91800       12.20400
C          4.19100        8.70300       11.73900
H          3.48900        8.26800       11.03000
H          4.84000        9.41000       11.22800
C          3.41600        9.43200       12.81000
O          3.53700        9.10800       13.98300
N          2.63100       10.41600       12.38900
H          2.56300       10.59900       11.39200
C          1.70100       11.18900       13.22300
H          2.15000       11.37900       14.19800
C          1.42100       12.53400       12.52200
H          0.80900       13.15000       13.18300
H          2.36500       13.05600       12.36000
C          0.70500       12.36300       11.17000
O         -0.35100       13.00300       10.99600
O          1.15000       11.50800       10.36700
C          0.35800       10.46300       13.44400
O         -0.22400       10.55200       14.52300
N         -0.13200        9.76800       12.40800
H          0.38600        9.86000       11.54100
C         -1.45900        9.14900       12.33000
H         -1.55900        8.79500       11.30400
C         -1.50500        7.90100       13.22800
H         -2.43200        7.35500       13.05100
H         -0.65900        7.25100       13.00500
H         -1.46500        8.19800       14.27600
C         -2.65100       10.12200       12.52500
O         -3.75000        9.70900       12.88800
N         -2.49100       11.41400       12.26000
H         -3.26800       12.03400       12.39900
H         -1.61100       11.77300       11.90100
