42
-1 1
H          0.12600        9.80300        0.66600
C         -0.21700        9.25900       -0.21200
H         -1.22800        8.89000       -0.05000
H          0.45500        8.42900       -0.42000
C         -0.22000       10.19600       -1.39600
O         -1.26100       10.41300       -2.00400
N          0.95100       10.73900       -1.70800
H          1.75500       10.52400       -1.13700
C          1.18100       11.72000       -2.77200
H          0.35300       11.67600       -3.48000
C          1.17400       13.13600       -2.14400
H          1.29000       13.87600       -2.93700
H          0.19000       13.30300       -1.70100
C          2.23600       13.39600       -1.06100
O          3.15700       12.56000       -0.91500
O          2.14300       14.46700       -0.41700
C          2.46000       11.36700       -3.57500
O          2.74600       10.19500       -3.82300
N          3.22300       12.36700       -4.02400
H          2.97100       13.30200       -3.73600
C          4.53700       12.21700       -4.67300
H          4.44400       11.50500       -5.49300
C          4.95500       13.58900       -5.25400
H          6.03000       13.60600       -5.44000
H          4.45600       13.71600       -6.21500
C          4.57500       14.74700       -4.34800
C          5.21200       14.88300       -3.10000
H          6.07800       14.28300       -2.86000
C          4.63000       15.68200       -2.10200
H          5.03100       15.68500       -1.10000
C          3.43200       16.37500       -2.36400
O          2.74000       16.91500       -1.33400
H          2.48500       16.16000       -0.75900
C          2.85400       16.32900       -3.64900
H          1.92200       16.84300       -3.82300
C          3.42400       15.50800       -4.64100
H          2.92000       15.38900       -5.59000
C          5.63400       11.66000       -3.73500
O          6.72100       11.32200       -4.19700
N          5.41500       11.56800       -2.42800
H          6.13600       11.19200       -1.84000
H          4.53300       11.87700       -2.02700
