33
-2 1
H          7.87300        0.46300       15.91700
C          7.35500        0.39200       14.96300
H          6.68100       -0.46200       14.96400
H          8.06800        0.29600       14.14700
C          6.53700        1.64300       14.75200
O          6.53800        2.52500       15.60400
N          5.87800        1.71000       13.60400
H          5.95500        0.93800       12.94600
C          4.89000        2.72400       13.22900
H          5.19200        3.68600       13.64300
C          4.86900        2.85200       11.69200
H          4.10800        3.57800       11.39900
H          5.83200        3.25300       11.37000
C          4.63300        1.52500       10.95200
O          3.60600        1.43900       10.24400
O          5.50200        0.62400       11.06600
C          3.47700        2.41400       13.77400
O          3.20200        1.32900       14.28900
N          2.56600        3.38300       13.65400
H          2.81900        4.25600       13.19600
C          1.13100        3.24600       13.93800
H          1.01300        2.50400       14.72700
C          0.56500        4.57900       14.48000
H         -0.51000        4.47000       14.63200
H          1.00600        4.74500       15.46400
C          0.82500        5.84700       13.64300
O          1.66900        5.81600       12.71700
O          0.19400        6.87500       13.97900
C          0.31300        2.71400       12.73700
O         -0.90300        2.54400       12.82800
N          0.93600        2.39900       11.60600
H          1.94100        2.47700       11.53400
H          0.40200        2.03400       10.84000
