38
-1 1
H          8.66400        8.72000        0.90300
C          7.65300        9.12000        0.94900
H          7.54000        9.92800        0.23000
H          7.44800        9.48000        1.95500
C          6.67300        8.02100        0.62000
O          5.86600        8.17500       -0.29000
N          6.76300        6.92700        1.36700
H          7.46000        6.90100        2.10900
C          5.83300        5.78900        1.36900
H          5.50400        5.57700        0.35200
C          6.57000        4.55900        1.93400
H          5.91300        3.69100        1.85500
H          7.45600        4.36200        1.32800
C          6.99600        4.75200        3.39900
O          6.58000        3.92100        4.23300
O          7.63800        5.78800        3.69400
C          4.58700        6.05000        2.24000
O          3.48900        5.62100        1.89100
N          4.76600        6.77300        3.35400
H          5.72800        7.01000        3.56900
C          3.75100        7.09200        4.37400
H          4.26700        7.67700        5.13400
C          2.65300        8.01300        3.80400
H          1.94800        7.41000        3.23000
H          2.10600        8.46900        4.62900
C          3.17900        9.10800        2.90900
N          3.79200       10.29300        3.32800
C          4.28300       10.85900        2.21600
H          4.86500       11.77100        2.20200
N          4.01200       10.10300        1.13800
H          4.40700       10.21700        0.21400
C          3.31000        9.00000        1.55700
H          3.03100        8.13800        0.96400
C          3.19100        5.87100        5.13200
O          2.12600        5.94400        5.74000
N          3.88500        4.73900        5.14700
H          4.78900        4.67100        4.68900
H          3.50800        3.94900        5.63700
