38
-1 1
H         10.10700        8.52400        2.14600
C          9.83500        9.44400        1.63300
H         10.10400        9.38000        0.58100
H         10.34300       10.29000        2.09400
C          8.34400        9.65000        1.74600
O          7.90600       10.65200        2.29400
N          7.58600        8.68700        1.23400
H          8.03400        7.87000        0.85000
C          6.11800        8.65200        1.23400
H          5.74300        9.15000        2.13000
C          5.58600        9.41600        0.00400
H          5.91000       10.45600        0.05700
H          6.00800        8.97100       -0.90000
C          4.05600        9.38000       -0.07600
O          3.41500        9.56600        0.98400
O          3.53900        9.00000       -1.14700
C          5.61400        7.19000        1.25500
O          6.38500        6.25600        1.02500
N          4.32300        6.98700        1.52800
H          3.74700        7.82400        1.62600
C          3.63400        5.69400        1.45000
H          4.26000        4.94800        1.93800
C          2.31400        5.80300        2.23200
H          1.91900        4.80200        2.40700
H          2.52300        6.25100        3.20400
C          1.23600        6.62800        1.51000
H          1.70500        7.45200        0.96900
H          0.74500        5.98800        0.77700
S         -0.02700        7.33300        2.60400
C          0.87600        8.81000        3.14800
H          1.12000        9.42700        2.28200
H          0.25900        9.38500        3.83700
H          1.80200        8.52000        3.64400
C          3.38400        5.20100        0.00900
O          3.13000        4.01800       -0.19600
N          3.42700        6.06000       -1.00400
H          3.56700        7.05300       -0.84500
H          3.26100        5.71800       -1.93300
