35
-1 1
H          5.63000        7.34200       -6.20700
C          6.14800        7.54500       -5.27200
H          6.49300        8.57700       -5.25500
H          6.99400        6.87000       -5.15900
C          5.19500        7.33000       -4.12100
O          4.93500        8.25400       -3.36000
N          4.67700        6.11200       -4.01100
H          4.97800        5.40000       -4.65400
C          3.84100        5.67300       -2.88800
H          3.10100        6.44500       -2.68600
C          3.07800        4.40500       -3.31700
H          2.51300        4.63300       -4.22300
H          3.79800        3.62300       -3.56300
C          2.09800        3.86100       -2.26800
O          1.50700        2.79700       -2.54600
O          1.93100        4.50700       -1.20900
C          4.70400        5.42300       -1.62600
O          5.64100        4.62100       -1.69400
N          4.43700        6.08300       -0.47900
C          3.47400        7.16300       -0.30100
H          2.48200        6.88700       -0.65900
H          3.82900        8.05100       -0.82500
C          3.42000        7.43400        1.20100
H          2.67000        6.79000        1.66300
H          3.21400        8.48300        1.41500
C          4.81500        7.02000        1.66700
H          4.83200        6.78000        2.73100
H          5.52400        7.82000        1.44700
C          5.12600        5.80700        0.78400
H          6.20100        5.75200        0.61300
C          4.69200        4.49200        1.46400
O          5.28900        4.09300        2.46100
N          3.65400        3.80900        0.99400
H          3.13500        4.14500        0.18600
H          3.39700        2.94700        1.43700
