45
0 1
H          5.44100        6.70100       -4.43600
C          5.56700        5.75200       -3.92500
H          6.14000        5.07100       -4.55200
H          4.59200        5.31500       -3.71900
C          6.31000        5.96500       -2.62500
O          7.49700        5.66800       -2.54300
N          5.68700        6.49200       -1.57600
H          6.19600        6.45200       -0.69800
C          4.40800        7.21800       -1.51100
H          3.61200        6.58100       -1.89800
C          4.08100        7.53200       -0.03300
H          3.29000        8.28200        0.01600
H          3.70800        6.62100        0.43800
C          5.31300        8.00900        0.74800
O          5.57200        9.22800        0.74200
O          6.15100        7.16600        1.13600
C          4.44100        8.48600       -2.39300
O          3.82700        8.49500       -3.46000
N          5.23700        9.51100       -2.04500
H          5.61300        9.51400       -1.09700
C          5.63800       10.58900       -2.97000
H          4.74500       10.87800       -3.52600
C          6.10200       11.87100       -2.23600
H          6.66100       12.48500       -2.94400
H          5.19900       12.43600       -1.99900
C          6.91000       11.80100       -0.92400
H          7.17600       12.82900       -0.67500
H          6.26100       11.45900       -0.12000
C          8.21600       10.98900       -0.91700
H          8.70800       11.05700       -1.88500
H          8.88400       11.45400       -0.18900
N          8.01000        9.59500       -0.48300
H          7.38800        9.46100        0.31800
C          8.47000        8.48400       -1.02400
N          8.35500        7.35400       -0.40000
H          7.76300        7.32800        0.43800
H          8.48600        6.49800       -0.91500
N          9.00500        8.43900       -2.20900
H          8.91100        9.25900       -2.79800
H          9.20600        7.54200       -2.60900
C          6.61600       10.08800       -4.04200
O          7.82500       10.28500       -3.96800
N          6.10800        9.39200       -5.04300
H          5.12300        9.16400       -5.02200
H          6.72100        9.04700       -5.76100
