41
-1 1
H          3.44000       16.01100        0.72100
C          2.37000       16.19400        0.78600
H          2.05500       16.84000       -0.03200
H          2.12600       16.65800        1.73900
C          1.63800       14.88000        0.67200
O          2.26100       13.84600        0.46400
N          0.31900       14.93500        0.81300
H         -0.12200       15.83700        0.96800
C         -0.61200       13.82600        0.56700
H         -0.17800       12.89200        0.92500
C         -1.92300       14.10300        1.32800
H         -2.57500       13.23300        1.22700
H         -1.70200       14.23200        2.38900
C         -2.65300       15.35300        0.81100
O         -1.99300       16.41500        0.70300
O         -3.82600       15.21100        0.40800
C         -0.93500       13.66600       -0.93200
O         -1.05200       12.54800       -1.42800
N         -1.07600       14.79400       -1.64200
H         -1.04100       15.65400       -1.10500
C         -1.49500       14.89500       -3.04600
H         -1.61400       15.95900       -3.24300
C         -0.37600       14.40300       -3.98500
H         -0.27900       13.32100       -3.88500
H         -0.66800       14.60600       -5.01600
C          0.97800       15.04600       -3.73400
C          1.89800       14.44000       -2.85800
H          1.64200       13.51300       -2.36100
C          3.13800       15.05000       -2.59900
H          3.82600       14.58400       -1.90700
C          3.46700       16.26700       -3.22200
H          4.41800       16.73700       -3.01800
C          2.55300       16.87400       -4.10200
H          2.80200       17.81100       -4.57700
C          1.31000       16.26500       -4.35600
H          0.60400       16.73700       -5.02400
C         -2.88500       14.28800       -3.35000
O         -3.18700       13.93900       -4.48900
N         -3.77600       14.18200       -2.37000
H         -4.67200       13.77900       -2.57500
H         -3.56800       14.51900       -1.43400
