35
-1 1
H        -12.64800       18.66600        3.54500
C        -12.20000       18.13100        2.70900
H        -11.30600       18.65400        2.37600
H        -12.91500       18.04800        1.89300
C        -11.81800       16.74800        3.17300
O        -12.30400       15.75800        2.63500
N        -10.93200       16.68700        4.15900
H        -10.59000       17.55000        4.57300
C        -10.57000       15.46500        4.87800
H        -10.54500       14.63800        4.16900
C         -9.15700       15.65600        5.45200
H         -8.79600       14.72600        5.88700
H         -8.47500       15.91500        4.63900
C         -9.11700       16.75600        6.51100
O         -9.13000       17.94200        6.11000
O         -9.09200       16.37700        7.70300
C        -11.60000       15.13100        5.99100
O        -12.39400       15.98900        6.38400
N        -11.62300       13.89200        6.52500
C        -10.88600       12.72600        6.05100
H         -9.81300       12.90000        6.02200
H        -11.25000       12.45000        5.06100
C        -11.19100       11.60600        7.04300
H        -10.47900       11.64200        7.87000
H        -11.17900       10.62600        6.56400
C        -12.58400       11.97400        7.54800
H        -12.80100       11.51300        8.51200
H        -13.32900       11.67100        6.81100
C        -12.52800       13.50600        7.61300
H        -13.52300       13.90100        7.40700
C        -12.12000       14.02300        9.01200
O        -12.69900       13.60200       10.01100
N        -11.12400       14.88900        9.15300
H        -10.63900       15.28500        8.35400
H        -10.89100       15.21200       10.07400
