43
0 1
H          1.77400       11.87000        0.48700
C          1.75100       10.86500        0.90400
H          0.71900       10.52000        0.96900
H          2.20300       10.86500        1.89300
C          2.52300        9.93800       -0.00200
O          1.97000        8.98000       -0.52700
N          3.81900       10.19200       -0.14600
H          4.22800       10.93500        0.40100
C          4.73600        9.43400       -1.01700
H          4.30200        9.39600       -2.01700
C          6.07900       10.18100       -1.10800
H          6.65800        9.75200       -1.92800
H          5.89400       11.23000       -1.34500
C          6.90400       10.09300        0.18000
O          8.14700        9.99100        0.09300
O          6.32700        9.96800        1.28800
C          4.97200        7.97000       -0.57200
O          5.62300        7.19900       -1.27300
N          4.46200        7.57100        0.60000
H          3.99400        8.28200        1.14200
C          4.40500        6.17200        1.06100
H          5.27600        5.63800        0.68300
C          4.42000        6.12900        2.60000
H          3.53300        6.64400        2.97300
H          4.35000        5.08700        2.92000
C          5.66000        6.74700        3.27500
H          5.69000        7.82000        3.08200
H          5.53200        6.62100        4.35100
C          7.00100        6.09400        2.88400
H          7.67900        6.15700        3.73700
H          6.83600        5.03500        2.68000
C          7.69000        6.73700        1.67000
H          8.53900        6.11500        1.37400
H          6.99200        6.76700        0.82800
N          8.16100        8.10900        1.96700
H          8.55100        8.56600        1.13600
H          7.36800        8.74000        2.11800
H          8.81100        8.17600        2.73000
C          3.20600        5.38800        0.50000
O          3.10400        4.19200        0.73300
N          2.28700        6.01700       -0.21800
H          2.36600        7.00900       -0.39700
H          1.51800        5.48200       -0.58200
