35
-1 1
H          5.83300       -2.81500       -3.38800
C          5.96900       -3.01400       -2.32700
H          7.03000       -3.02700       -2.08500
H          5.52100       -3.97000       -2.06500
C          5.29900       -1.92200       -1.53100
O          4.72400       -1.00600       -2.10400
N          5.40900       -2.01300       -0.21000
H          5.97500       -2.76900        0.17100
C          4.90100       -1.04400        0.77600
H          3.81300       -1.00100        0.72400
C          5.32400       -1.53000        2.17800
H          5.10800       -0.75500        2.91600
H          4.73200       -2.41000        2.43700
C          6.81300       -1.90600        2.22800
O          7.14400       -3.01100        1.74100
O          7.63700       -1.04600        2.60800
C          5.43800        0.38100        0.54900
O          4.71300        1.36300        0.70000
N          6.70700        0.48100        0.15500
H          7.23400       -0.38100        0.12300
C          7.43000        1.71700       -0.13500
H          6.98300        2.51900        0.45400
C          8.88700        1.54100        0.33900
H          9.47800        2.40400        0.03600
H          8.89400        1.49200        1.42800
C          9.55400        0.28400       -0.19600
O         10.15900        0.27300       -1.25400
N          9.45100       -0.82400        0.50100
H          8.90500       -0.85600        1.37200
H          9.86500       -1.65500        0.13300
C          7.31300        2.16600       -1.61000
O          7.90000        3.16900       -2.00700
N          6.55400        1.46600       -2.44600
H          6.48400        1.77200       -3.40000
H          6.02500        0.67200       -2.10900
