40
-1 1
H          3.65200        7.47700       -0.03500
C          3.13500        8.04600        0.73500
H          2.09700        8.20400        0.45100
H          3.63100        9.00400        0.88100
C          3.17800        7.27100        2.03000
O          2.13800        6.92200        2.57100
N          4.38700        7.01300        2.51200
H          5.19900        7.38100        2.02300
C          4.67700        6.41900        3.82400
H          4.00200        5.58300        4.00900
C          6.13200        5.91000        3.82200
H          6.32000        5.38800        4.76200
H          6.25900        5.19100        3.01000
C          7.15600        7.04500        3.65000
O          6.98000        7.86100        2.71400
O          8.04300        7.15800        4.52200
C          4.51500        7.43400        4.97200
O          4.05100        7.08100        6.05400
N          4.90100        8.69300        4.72000
H          5.36600        8.83000        3.82800
C          4.94700        9.80400        5.68100
H          5.39700       10.64100        5.15000
C          3.52000       10.24300        6.08500
H          3.10500        9.48100        6.74600
H          3.59600       11.16700        6.65800
C          2.53100       10.46300        4.92300
H          2.38900        9.53300        4.37300
C          1.17300       10.89500        5.48000
H          0.80300       10.12400        6.15700
H          1.27000       11.83500        6.02100
H          0.46200       11.01200        4.66300
C          3.00400       11.54600        3.94800
H          3.92300       11.22400        3.46000
H          2.24600       11.70400        3.18100
H          3.18300       12.47800        4.48300
C          5.88700        9.57000        6.88700
O          5.74300       10.20500        7.92900
N          6.88300        8.69800        6.77700
H          7.48200        8.54900        7.56800
H          7.05300        8.20400        5.90700
