33
-2 1
H         12.84200        2.79900      -10.35400
C         12.94700        3.85300      -10.10700
H         13.99500        4.14100      -10.09900
H         12.49900        4.05000       -9.13400
C         12.21600        4.67800      -11.13900
O         12.80800        5.55900      -11.75200
N         10.94000        4.36700      -11.32600
H         10.53400        3.60000      -10.79400
C          9.96000        5.15000      -12.08900
H         10.47900        5.64700      -12.90900
C          8.89600        4.21700      -12.71900
H          8.03900        4.81800      -13.02700
H          9.33600        3.81000      -13.63100
C          8.39100        3.01500      -11.89200
O          8.81700        2.82900      -10.72600
O          7.60000        2.23900      -12.47400
C          9.31400        6.28300      -11.26000
O          8.85500        7.27100      -11.83300
N          9.36000        6.18800       -9.92700
H          9.73000        5.33100       -9.54300
C          9.07800        7.26600       -8.96700
H          9.22200        8.22300       -9.47000
C          7.60600        7.20000       -8.50100
H          6.96600        7.11800       -9.38100
H          7.46800        6.29900       -7.90200
C          7.13400        8.42400       -7.69200
O          7.80800        9.48100       -7.73800
O          6.09800        8.29500       -7.00100
C         10.07500        7.20700       -7.78500
O         10.78000        6.22100       -7.56800
N         10.17800        8.26500       -6.99500
H          9.52800        9.03300       -7.14000
H         10.80400        8.23100       -6.21200
