37
-1 1
H         -4.54500        6.16900        4.25500
C         -5.02400        5.20600        4.09300
H         -5.95900        5.34500        3.55300
H         -5.21100        4.71700        5.04700
C         -4.10500        4.33900        3.26800
O         -3.68500        3.28400        3.72600
N         -3.83200        4.78700        2.04800
H         -4.31000        5.62300        1.72300
C         -2.95300        4.14300        1.06700
H         -2.92000        3.07400        1.28000
C         -3.57600        4.31000       -0.33800
H         -2.90400        3.88100       -1.08300
H         -4.50900        3.74500       -0.37400
C         -3.87900        5.77600       -0.68200
O         -4.82200        6.34200       -0.08700
O         -3.08200        6.34900       -1.45900
C         -1.49200        4.64800        1.18100
O         -0.76600        4.25400        2.09100
N         -1.04200        5.51300        0.26300
H         -1.69100        5.78400       -0.47100
C          0.28700        6.15300        0.23200
H          0.70200        6.13600        1.23900
C          1.26300        5.39200       -0.69300
H          2.21900        5.91700       -0.67500
C          1.53400        3.96200       -0.21100
H          1.84600        3.98300        0.83400
H          0.63200        3.35600       -0.29600
H          2.32600        3.51300       -0.81000
C          0.79200        5.33500       -2.15500
H         -0.16100        4.80900       -2.22500
H          0.67100        6.34300       -2.55000
H          1.53300        4.81300       -2.75900
C          0.22200        7.63300       -0.18200
O          1.20300        8.35600       -0.04200
N         -0.90200        8.13000       -0.68600
H         -0.92900        9.10100       -0.93900
H         -1.71100        7.53500       -0.84500
