37
-1 1
H          0.96300        3.70200       -6.55100
C          1.10900        2.84100       -5.90200
H          1.25900        3.17000       -4.87500
H          1.97100        2.26600       -6.23200
C         -0.11800        1.96600       -5.96000
O         -1.06100        2.27400       -6.67700
N         -0.10600        0.89400       -5.17900
H          0.65300        0.79900       -4.51100
C         -1.24600       -0.00500       -4.94600
H         -1.62000       -0.36500       -5.90400
C         -0.78000       -1.21900       -4.11200
H         -1.65400       -1.82800       -3.87100
H         -0.12800       -1.82600       -4.74300
C         -0.01400       -0.90700       -2.80900
O          0.33700        0.27600       -2.57200
O          0.23700       -1.87400       -2.06100
C         -2.41000        0.71200       -4.24000
O         -3.56800        0.56200       -4.62700
N         -2.09400        1.55700       -3.25700
H         -1.13200        1.50900       -2.92400
C         -3.02300        2.48700       -2.58900
H         -3.94600        1.94200       -2.39000
C         -2.45300        2.94800       -1.23000
H         -3.17700        3.61500       -0.76100
C         -2.25600        1.76300       -0.27400
H         -3.19000        1.21000       -0.17600
H         -1.48400        1.09100       -0.65300
H         -1.95300        2.12700        0.70700
C         -1.12500        3.70800       -1.36000
H         -1.25200        4.57300       -2.01100
H         -0.80600        4.05400       -0.37700
H         -0.35400        3.05400       -1.77000
C         -3.42700        3.69300       -3.46000
O         -4.09500        4.60900       -2.99000
N         -3.03400        3.75100       -4.72700
H         -3.31800        4.53600       -5.28400
H         -2.51900        2.98200       -5.13200
