45
-1 1
H          4.25700       15.45300        3.12100
C          4.20200       14.80300        2.25100
H          4.44600       15.35800        1.34800
H          3.20000       14.38600        2.17100
C          5.18200       13.66900        2.41600
O          5.99200       13.42400        1.53000
N          5.09600       12.97500        3.54400
H          4.36200       13.21300        4.21100
C          5.92700       11.81100        3.89500
H          6.97800       12.09400        3.85200
C          5.59400       11.38100        5.33600
H          6.05300       10.41300        5.54600
H          6.02900       12.10900        6.02300
C          4.08300       11.31600        5.58600
O          3.52100       10.20700        5.48300
O          3.49200       12.40300        5.78800
C          5.73700       10.62500        2.93000
O          6.68800        9.89700        2.64600
N          4.53800       10.47500        2.36000
H          3.79600       11.07800        2.68600
C          4.22400        9.51000        1.30100
H          4.66400        8.55100        1.57400
C          2.69900        9.34200        1.23200
H          2.46500        8.53800        0.53300
H          2.34000        9.03000        2.21400
C          1.94500       10.57300        0.82100
C          1.63700       10.90600       -0.45200
H          1.89200       10.30600       -1.31800
N          0.99900       12.13200       -0.47100
H          0.69500       12.58500       -1.31800
C          0.88000       12.66100        0.79700
C          0.34000       13.86000        1.28700
H         -0.09900       14.57800        0.61100
C          0.38600       14.11500        2.66900
H         -0.01500       15.03500        3.07000
C          0.96700       13.17000        3.53400
H          1.02200       13.36200        4.59900
C          1.49700       11.96700        3.03100
H          1.92800       11.25300        3.72200
C          1.47400       11.68100        1.65000
C          4.79800        9.88900       -0.08300
O          4.57400        9.18800       -1.06700
N          5.51100       11.00100       -0.21900
H          5.88200       11.23100       -1.12300
H          5.69600       11.58700        0.58600
