37
0 1
H          2.87400        8.48800        0.28300
C          2.05200        9.17000        0.07500
H          1.46500        8.79000       -0.76000
H          2.44100       10.15700       -0.17300
C          1.16700        9.27500        1.29200
O         -0.02200        8.99100        1.21700
N          1.74000        9.70400        2.41400
H          2.73000        9.88500        2.39200
C          1.07400        9.83000        3.71900
H          0.47800        8.93000        3.87800
C          2.14900        9.88400        4.82000
H          2.71500       10.81400        4.73000
H          1.66000        9.87500        5.79600
S          3.27900        8.46400        4.69800
H          3.99500        8.72300        5.79900
C          0.09400       11.02600        3.80900
O          0.12700       11.78900        4.77300
N         -0.75800       11.21700        2.79800
H         -0.75300       10.51500        2.06600
C         -1.59100       12.41300        2.57800
H         -0.97700       13.28100        2.82200
C         -1.96800       12.52400        1.08500
H         -2.68900       11.74100        0.84300
H         -2.45200       13.48600        0.91500
C         -0.78200       12.39800        0.11600
H         -0.43400       11.36600        0.12800
H         -1.14400       12.59900       -0.89300
S          0.64800       13.47400        0.43400
C         -0.09100       15.10600        0.15400
H         -0.50900       15.15300       -0.85200
H         -0.87800       15.28700        0.88500
H          0.67700       15.87300        0.26000
C         -2.83400       12.51200        3.49200
O         -3.89700       12.95600        3.07500
N         -2.74800       12.08400        4.74300
H         -1.85200       11.78100        5.09800
H         -3.56200       12.14600        5.33000
