31
0 1
H          5.35200        2.41800        4.39900
C          5.56200        2.89800        3.44500
H          6.12700        3.81400        3.61700
H          4.63000        3.13800        2.93700
C          6.38500        1.96900        2.58600
O          7.49500        2.30400        2.19700
N          5.82800        0.80700        2.24800
H          4.89200        0.61200        2.57000
C          6.50500       -0.25100        1.48200
H          7.46200       -0.45700        1.96400
C          5.64600       -1.52200        1.56700
H          6.15000       -2.34000        1.04700
H          5.51900       -1.80400        2.61300
S          4.01500       -1.23900        0.81500
H          4.41400       -1.32600       -0.46100
C          6.84300        0.10500        0.01500
O          7.39000       -0.73100       -0.69800
N          6.52000        1.31700       -0.44500
H          6.11000        1.96500        0.20800
C          6.96100        1.87100       -1.72800
H          7.13900        1.05500       -2.43100
C          5.83700        2.75200       -2.30000
H          6.21700        3.27300       -3.18300
H          5.00200        2.12300       -2.60900
S          5.25600        3.98000       -1.08800
H          4.30000        3.22600       -0.53400
C          8.29500        2.64500       -1.63800
O          8.85100        3.02600       -2.66000
N          8.83900        2.89300       -0.45100
H          9.70700        3.40000       -0.42300
H          8.37900        2.60000        0.40100
