31
0 1
H          2.32900        2.39500       -1.67800
C          2.60800        2.29900       -0.62900
H          3.51100        1.69700       -0.54700
H          1.79500        1.82900       -0.07900
C          2.86600        3.67500       -0.06300
O          2.78000        4.66400       -0.77900
N          3.21300        3.74000        1.22100
H          3.21800        2.88400        1.75400
C          3.36200        4.99200        1.98000
H          2.42600        5.54700        1.90100
C          3.59000        4.64800        3.46100
H          4.57400        4.19400        3.58600
H          3.55900        5.57200        4.04300
S          2.31000        3.50700        4.07000
H          2.63500        3.56400        5.36800
C          4.47100        5.94400        1.47900
O          4.56700        7.06800        1.96000
N          5.31000        5.51200        0.53300
H          5.16300        4.58700        0.16000
C          6.29100        6.35000       -0.16100
H          6.71100        7.06700        0.54800
C          7.42300        5.43800       -0.65700
H          8.16200        6.03500       -1.19700
H          7.91300        4.97600        0.20200
S          6.77500        4.13300       -1.74800
H          6.51100        4.92000       -2.80000
C          5.69300        7.18400       -1.31600
O          6.39700        7.98200       -1.92100
N          4.42600        7.01000       -1.67400
H          3.85100        6.31700       -1.21200
H          4.06000        7.56900       -2.42600
