31
0 1
H         -3.15000       -1.15100        1.73100
C         -2.91200       -0.44700        0.93400
H         -3.75200        0.22900        0.78400
H         -2.70300       -0.99300        0.01600
C         -1.69300        0.34900        1.33400
O         -1.16200        0.16500        2.42100
N         -1.26000        1.26300        0.46800
H         -1.76700        1.39300       -0.39400
C         -0.08800        2.12200        0.69600
H          0.76200        1.48500        0.94900
C          0.23500        2.86000       -0.61200
H          1.06700        3.54600       -0.43300
H          0.53700        2.14000       -1.37400
S         -1.21000        3.79800       -1.19800
H         -0.58600        4.48400       -2.16400
C         -0.23600        3.11100        1.87100
O          0.75400        3.70100        2.29500
N         -1.44500        3.28300        2.41200
H         -2.21600        2.77100        2.01500
C         -1.71500        4.02500        3.64600
H         -1.07400        4.90800        3.67500
C         -3.17900        4.48800        3.60900
H         -3.42100        4.96900        4.56000
H         -3.30800        5.21700        2.80700
S         -4.30300        3.08000        3.33300
H         -5.44200        3.72100        3.61900
C         -1.41000        3.23000        4.93600
O         -1.48600        3.78600        6.02500
N         -1.07500        1.94600        4.86400
H         -1.03400        1.47300        3.97100
H         -0.88100        1.45600        5.72000
