37
0 1
H          7.83900        4.35400       -1.38000
C          7.80700        5.34400       -1.83300
H          7.12300        5.33500       -2.67900
H          8.80600        5.62300       -2.16400
C          7.32400        6.33700       -0.80300
O          7.03900        5.96500        0.32700
N          7.22000        7.60600       -1.19500
H          7.46000        7.82500       -2.14800
C          6.77500        8.70800       -0.33200
H          7.25500        8.59100        0.64200
C          7.28200       10.02700       -0.93900
H          8.35900        9.96600       -1.10100
H          6.78400       10.21500       -1.89200
S          6.94300       11.40200        0.19500
H          5.60800       11.35700        0.05500
C          5.24900        8.68100       -0.07600
O          4.51300        9.57200       -0.50300
N          4.76100        7.63300        0.59400
H          5.42700        6.92100        0.87800
C          3.34500        7.40100        0.91000
H          2.76200        7.67900        0.03100
C          3.13300        5.89200        1.14200
H          3.61100        5.35000        0.32600
H          3.61100        5.59200        2.07500
C          1.65000        5.49600        1.18000
H          1.17800        5.98200        2.03400
H          1.16200        5.86100        0.27600
S          1.33300        3.71400        1.32100
C          1.86400        3.12900       -0.31100
H          1.65900        2.06200       -0.39400
H          1.31600        3.66200       -1.08800
H          2.93400        3.29500       -0.43600
C          2.84600        8.29300        2.06900
O          2.47100        7.82700        3.13700
N          2.87100        9.60600        1.89200
H          2.56600       10.19800        2.64600
H          3.22000        9.98100        1.02100
