43
0 1
H          0.21500        4.97100        3.01300
C          0.56500        4.66800        2.02800
H         -0.27900        4.33500        1.42600
H          1.28600        3.85800        2.12400
C          1.22300        5.84500        1.34700
O          0.77600        6.27000        0.28800
N          2.28300        6.36800        1.95700
H          2.60800        5.92300        2.80400
C          3.11000        7.47700        1.46200
H          3.05000        7.51800        0.37400
C          2.62800        8.82100        2.04800
H          2.56800        8.72700        3.13400
H          3.36900        9.59000        1.82700
C          1.27000        9.31400        1.52200
H          0.50300        8.55700        1.67900
H          0.98000       10.19600        2.09300
C          1.32600        9.70800        0.05000
O          1.69600       10.81200       -0.30500
N          0.99100        8.82700       -0.86400
H          1.03300        9.13000       -1.81900
H          0.73200        7.88200       -0.59000
C          4.58300        7.24100        1.83200
O          4.87500        6.53000        2.79200
N          5.50900        7.84500        1.08200
H          5.21000        8.44400        0.32300
C          6.95700        7.74900        1.30100
H          7.14800        7.70200        2.37500
C          7.48300        6.45000        0.65800
H          7.02400        5.59800        1.16100
H          7.18000        6.42700       -0.39000
C          9.00700        6.28000        0.71500
H          9.25300        5.31500        0.27100
H          9.47600        7.05200        0.10400
S          9.72200        6.33700        2.38200
C         11.45900        6.01600        1.97900
H         12.05000        6.01800        2.89500
H         11.55000        5.04300        1.49500
H         11.83100        6.79100        1.30800
C          7.66100        8.99800        0.75000
O          7.23600        9.56600       -0.24900
N          8.74200        9.44300        1.37500
H          9.19600       10.26600        1.01500
H          9.09800        8.95100        2.18000
