37
0 1
H         13.28300        0.87000       -3.58200
C         13.80800        1.78200       -3.30100
H         14.81800        1.76200       -3.70600
H         13.84400        1.86500       -2.21700
C         13.06700        2.96900       -3.86900
O         12.04400        2.80400       -4.52300
N         13.58100        4.17100       -3.61600
H         14.43400        4.23600       -3.08000
C         13.02700        5.42700       -4.12700
H         12.67000        5.24600       -5.14200
C         11.83400        5.84700       -3.24000
H         11.11000        5.03200       -3.21800
H         12.18600        6.00400       -2.21900
C         11.10600        7.11700       -3.70600
H         10.19100        7.23200       -3.12400
H         11.73800        7.98600       -3.51500
C         10.75000        7.07900       -5.18700
O         11.28900        7.82600       -5.98600
N          9.92300        6.16000       -5.63100
H          9.54200        5.46700       -5.01100
H          9.75300        6.14700       -6.62100
C         14.11700        6.51000       -4.19700
O         14.99300        6.54900       -3.33700
N         14.04600        7.39100       -5.20200
H         13.26900        7.31800       -5.84600
C         15.06000        8.41900       -5.48100
H         15.82000        8.40000       -4.69800
C         15.75300        8.09100       -6.81500
H         15.03400        8.17400       -7.63100
H         16.55100        8.81800       -6.98000
S         16.46400        6.41600       -6.80100
H         17.09800        6.49300       -7.97700
C         14.50300        9.85600       -5.50600
O         15.26700       10.81200       -5.50800
N         13.19000       10.05600       -5.53900
H         12.85600       11.00500       -5.56100
H         12.55100        9.27500       -5.59400
