43
0 1
H         11.26900       -6.18000       -6.74700
C         11.92800       -6.96300       -7.11800
H         12.02800       -6.87600       -8.19800
H         11.51900       -7.93900       -6.86500
C         13.28400       -6.81300       -6.47100
O         13.46000       -5.99200       -5.57900
N         14.26200       -7.58700       -6.93800
H         14.05600       -8.19200       -7.72600
C         15.61900       -7.65300       -6.37500
H         15.50700       -7.80200       -5.30000
C         16.35200       -8.89300       -6.93100
H         17.17100       -9.11300       -6.24400
H         15.68100       -9.75400       -6.90600
C         16.97200       -8.77200       -8.34100
H         17.61900       -7.89600       -8.38600
H         17.60900       -9.64300       -8.49700
C         15.98600       -8.71900       -9.50800
O         14.77800       -8.81600       -9.37800
N         16.46800       -8.55600      -10.71900
H         15.79700       -8.57300      -11.46700
H         17.45700       -8.49200      -10.87400
C         16.45300       -6.36400       -6.53600
O         17.57100       -6.29400       -6.03400
N         15.93300       -5.35900       -7.24500
H         15.00200       -5.48900       -7.61300
C         16.51200       -4.01500       -7.36900
H         17.58600       -4.08700       -7.19100
C         16.32100       -3.50300       -8.80900
H         16.93300       -2.60800       -8.93000
H         16.70100       -4.24700       -9.50800
C         14.87700       -3.13100       -9.19200
H         14.52800       -2.35300       -8.51200
H         14.89900       -2.69300      -10.19000
S         13.63800       -4.46500       -9.20200
C         14.27800       -5.53800      -10.51500
H         15.26500       -5.91100      -10.24200
H         13.60500       -6.38600      -10.64800
H         14.34300       -4.97900      -11.44800
C         15.97100       -3.01500       -6.32700
O         16.38400       -1.86200       -6.31000
N         15.04000       -3.40200       -5.46300
H         14.70100       -2.73200       -4.79300
H         14.67100       -4.34400       -5.48800
