37
0 1
H         18.31000        5.50700        0.91600
C         18.63500        4.92300        1.77500
H         19.64100        5.22000        2.06600
H         18.62400        3.86400        1.52200
C         17.68800        5.16100        2.92700
O         17.05000        4.23200        3.40300
N         17.60100        6.41300        3.37200
H         18.21100        7.10500        2.95400
C         16.78400        6.84400        4.51900
H         16.02600        6.08100        4.70500
C         17.66700        6.92200        5.78600
H         17.09700        7.39400        6.58700
H         17.88100        5.90300        6.11300
C         19.01700        7.65600        5.64300
H         19.40500        7.88100        6.63600
H         19.72700        6.98600        5.15700
C         18.94800        8.93700        4.82000
O         19.09800        8.92500        3.60900
N         18.67700       10.07600        5.41600
H         18.63600       10.89200        4.82900
H         18.48500       10.10600        6.40100
C         15.98700        8.14200        4.25900
O         15.40200        8.70700        5.18000
N         15.96700        8.63600        3.01800
H         16.44400        8.12500        2.28800
C         15.21500        9.81700        2.59200
H         14.24100        9.80100        3.08400
C         15.96200       11.08600        3.04300
H         15.33700       11.95900        2.85500
H         16.15000       11.03100        4.11700
S         17.53600       11.29800        2.16100
H         18.14300       10.18000        2.59800
C         14.96600        9.78100        1.07100
O         15.48500        8.92500        0.36200
N         14.15600       10.69100        0.54500
H         14.00300       10.66300       -0.45000
H         13.73500       11.39800        1.12200
