41
-1 1
H          4.72000       -1.72600        4.02300
C          5.67400       -1.22300        3.87600
H          6.46400       -1.76900        4.38700
H          5.61800       -0.20500        4.25500
C          5.98000       -1.18100        2.39800
O          5.19700       -1.67000        1.59600
N          7.12500       -0.59900        2.05800
H          7.73400       -0.25700        2.78600
C          7.65000       -0.46600        0.69300
H          7.36500       -1.34800        0.11600
C          7.04000        0.78900        0.02300
H          6.11200        1.05800        0.53100
H          7.72400        1.63100        0.14000
C          6.69500        0.61400       -1.46500
H          5.91000       -0.14100       -1.55800
H          6.29500        1.55600       -1.84700
C          7.91200        0.19800       -2.29100
O          8.74200        1.07900       -2.59800
O          8.09200       -1.02500       -2.48900
C          9.19200       -0.40200        0.76000
O          9.74800       -0.00200        1.78700
N          9.88800       -0.81300       -0.30200
H          9.36700       -1.07700       -1.13800
C         11.35600       -0.82300       -0.39700
H         11.76800       -1.19500        0.54200
C         11.77300       -1.77800       -1.52500
H         11.43600       -1.36900       -2.47900
H         12.86100       -1.84100       -1.55000
C         11.21900       -3.17300       -1.37900
N         11.74500       -4.18200       -0.56600
C         10.89600       -5.21300       -0.67100
H         11.00900       -6.15000       -0.14400
N          9.88000       -4.91000       -1.49800
H          9.08800       -5.49800       -1.70600
C         10.06900       -3.62700       -1.95500
H          9.41400       -3.05200       -2.60000
C         11.96600        0.56700       -0.63800
O         13.11600        0.81000       -0.28500
N         11.23900        1.49900       -1.24000
H         10.31300        1.27300       -1.59800
H         11.64100        2.40400       -1.39500
