46
0 1
H         -0.97300       -1.27100       -4.01100
C         -0.11600       -1.71400       -3.50700
H          0.09000       -2.69600       -3.92900
H         -0.31700       -1.80200       -2.44100
C          1.08700       -0.82800       -3.71400
O          2.07400       -1.25300       -4.29800
N          1.01900        0.38900       -3.18800
H          0.24000        0.59500       -2.57300
C          2.10700        1.37900       -3.21000
H          2.39400        1.54500       -4.25000
C          1.57900        2.71600       -2.63700
H          2.17200        3.50700       -3.09700
H          0.55100        2.86700       -2.97200
C          1.64100        2.96100       -1.11000
H          2.68400        2.91200       -0.79000
H          1.31300        3.98800       -0.93800
C          0.80600        2.03700       -0.20000
O          0.41700        0.90600       -0.58300
O          0.57900        2.39400        0.97700
C          3.36700        0.89800       -2.47000
O          4.48800        1.22000       -2.85100
N          3.16200        0.08900       -1.42600
H          2.18800       -0.04500       -1.17400
C          4.18800       -0.59400       -0.62200
H          5.14200       -0.10000       -0.81600
C          3.86800       -0.39500        0.87200
H          4.68000       -0.79800        1.47900
H          3.82000        0.68100        1.05300
C          2.54000       -1.04500        1.30500
H          1.79300       -0.90100        0.52900
H          2.68100       -2.11900        1.42800
C          2.01900       -0.44300        2.62000
H          2.58900       -0.86700        3.44800
H          2.16800        0.64000        2.62300
C          0.52600       -0.73100        2.82400
H          0.34300       -1.79600        2.66100
H          0.26900       -0.48900        3.85900
N         -0.30800        0.08700        1.90800
H         -0.06000       -0.04400        0.92400
H         -1.29900       -0.02800        2.02700
H         -0.07300        1.08400        1.97600
C          4.41200       -2.05900       -1.03300
O          4.88100       -2.86600       -0.24100
N          4.03900       -2.44500       -2.24400
H          3.64100       -1.77700       -2.89000
H          4.18800       -3.40200       -2.51000
