41
-1 1
H          6.36500       15.29900      -10.23100
C          5.97900       14.58600       -9.50600
H          5.79400       15.08700       -8.55700
H          6.68800       13.77600       -9.35300
C          4.68400       14.01000      -10.02100
O          4.36500       14.14900      -11.19700
N          3.92900       13.36800       -9.13600
H          4.22400       13.36300       -8.15700
C          2.64500       12.72100       -9.43800
H          2.80100       12.06800      -10.29600
C          2.21700       11.82900       -8.25300
H          1.45300       11.14100       -8.61900
H          3.06800       11.21800       -7.94800
C          1.63700       12.53900       -7.01300
H          0.69900       13.02100       -7.29900
H          1.39200       11.77500       -6.27200
C          2.56700       13.57500       -6.36100
O          3.80500       13.37500       -6.39000
O          2.03400       14.58600       -5.85500
C          1.53100       13.70200       -9.84800
O          0.53100       13.28200      -10.42800
N          1.71800       15.00500       -9.61200
H          2.54800       15.27200       -9.09900
C          0.81200       16.07100      -10.06500
H         -0.19900       15.77800       -9.78000
C          1.12800       17.42200       -9.38100
H          1.66500       18.06700      -10.07900
H          0.17600       17.90900       -9.16700
C          1.94300       17.37000       -8.08100
H          1.73600       18.27600       -7.51000
H          1.62100       16.52100       -7.47700
S          3.73800       17.29500       -8.35900
C          4.30300       17.00800       -6.66100
H          3.95500       16.03500       -6.31700
H          5.39200       17.02000       -6.63100
H          3.90900       17.78100       -6.00300
C          0.81200       16.25800      -11.59700
O         -0.03000       16.96900      -12.13800
N          1.75500       15.67000      -12.32600
H          1.74100       15.79200      -13.32200
H          2.45500       15.09600      -11.87300
