44
-1 1
H         -2.19500        2.43500        1.68800
C         -1.45900        1.90600        1.08700
H         -1.95000        1.40300        0.25600
H         -0.92800        1.18000        1.69900
C         -0.46600        2.90100        0.53600
O         -0.33100        3.02500       -0.67300
N          0.22200        3.59200        1.43700
H          0.08700        3.38500        2.41500
C          1.30300        4.54300        1.14900
H          1.82400        4.21400        0.24800
C          0.71900        5.95400        0.89800
H         -0.33600        5.86800        0.63100
H          0.77100        6.53600        1.81900
C          1.40300        6.73500       -0.23800
H          1.21400        6.21900       -1.18200
H          0.94700        7.72500       -0.30800
C          2.91200        6.87400       -0.02300
O          3.32300        7.78200        0.72800
O          3.65600        5.98000       -0.48500
C          2.30500        4.51500        2.32300
O          1.93700        4.14900        3.44400
N          3.57100        4.85000        2.06600
H          3.78400        5.19400        1.13000
C          4.71300        4.56900        2.94200
H          4.34100        4.34900        3.94200
C          5.43300        3.31400        2.41100
H          5.96500        3.58100        1.49700
H          6.18100        3.00300        3.14300
C          4.52000        2.13600        2.11000
C          4.15100        1.24200        3.13400
H          4.53600        1.38300        4.13300
C          3.26100        0.18700        2.86400
H          2.97200       -0.48900        3.65600
C          2.72800        0.02700        1.57300
H          2.03100       -0.77300        1.36800
C          3.09000        0.92000        0.54900
H          2.66500        0.81600       -0.44000
C          3.98900        1.96800        0.81600
H          4.24500        2.67000        0.03300
C          5.69400        5.75000        3.09000
O          6.66400        5.65500        3.83700
N          5.48800        6.87100        2.40900
H          4.68600        6.97200        1.79000
H          6.13700        7.62900        2.51400
