41
-1 1
H          4.96000       12.43900       -8.26300
C          5.79500       12.74800       -7.63600
H          5.54100       13.67100       -7.11900
H          6.68500       12.89200       -8.24600
C          6.06500       11.67100       -6.61600
O          7.17800       11.16600       -6.53000
N          5.03800       11.32400       -5.85100
H          4.13200       11.74000       -6.06100
C          5.02000       10.16200       -4.94900
H          6.02800       10.00300       -4.56300
C          4.10400       10.44100       -3.73400
H          3.87400        9.48700       -3.25700
H          4.67800       11.02200       -3.01000
C          2.77800       11.19600       -3.97300
H          2.14100       11.07700       -3.09300
H          3.00200       12.26200       -4.06500
C          2.03000       10.73800       -5.22900
O          2.29900       11.32400       -6.30500
O          1.29600        9.73200       -5.14400
C          4.64800        8.85100       -5.66900
O          5.11600        7.78700       -5.26800
N          3.87000        8.92900       -6.75800
H          3.42000        9.82700       -6.92500
C          3.46600        7.80900       -7.62200
H          2.75700        8.22200       -8.33800
C          4.67000        7.29100       -8.43400
H          5.40800        6.87800       -7.74700
H          4.34500        6.49000       -9.09900
C          5.32100        8.38800       -9.29200
H          4.63800        8.63500      -10.10500
H          5.46600        9.28800       -8.69400
S          6.93100        7.94700      -10.00400
C          7.96000        8.10400       -8.51600
H          7.62800        7.39500       -7.75600
H          8.99900        7.89900       -8.76800
H          7.87800        9.11600       -8.11800
C          2.68300        6.69400       -6.89400
O          2.72300        5.52800       -7.28100
N          1.93400        7.02000       -5.84900
H          1.84200        7.99500       -5.57300
H          1.43200        6.29800       -5.36700
