39
-2 1
H          9.55700        9.47600       -3.54500
C          8.63600        8.91900       -3.38300
H          8.08900        9.36600       -2.55500
H          8.87300        7.88400       -3.14900
C          7.77800        8.96300       -4.63200
O          7.43300        7.91400       -5.16100
N          7.39900       10.13500       -5.13300
H          6.76800       10.11200       -5.91900
C          7.74400       11.47900       -4.63900
H          7.83800       11.43900       -3.55500
C          9.09100       11.92100       -5.25500
H          9.79900       11.09500       -5.18100
H          8.94800       12.12600       -6.31700
C          9.75000       13.14400       -4.59800
H         10.75000       13.27200       -5.02100
H          9.17700       14.03900       -4.84400
C          9.84000       12.98500       -3.07600
O         10.85700       12.42800       -2.60700
O          8.84900       13.35500       -2.40500
C          6.62300       12.49100       -4.95000
O          5.83100       12.27000       -5.86900
N          6.54300       13.58000       -4.18300
H          7.25100       13.70600       -3.45800
C          5.56900       14.66400       -4.39100
H          4.58200       14.20900       -4.48400
C          5.54900       15.57200       -3.14300
H          5.25500       14.96600       -2.28500
H          6.56900       15.91600       -2.96200
C          4.64500       16.82100       -3.17700
H          4.80800       17.37200       -2.24700
H          4.97000       17.47800       -3.98700
C          3.14100       16.52800       -3.33400
O          2.36600       16.98200       -2.46200
O          2.76300       15.89600       -4.34900
C          5.82200       15.45500       -5.69500
O          6.95000       15.68300       -6.13000
N          4.76200       15.92500       -6.33700
H          4.89900       16.45100       -7.17900
H          3.84600       15.81300       -5.90900
