38
-1 1
H         -0.45900       17.16000       -3.04200
C         -0.30900       17.68300       -2.10000
H         -1.17600       17.54600       -1.45600
H         -0.15500       18.74600       -2.27700
C          0.90600       17.12000       -1.40700
O          1.57400       16.24100       -1.94200
N          1.18700       17.63000       -0.21400
H          0.57300       18.35900        0.15500
C          2.25700       17.15100        0.67300
H          3.14300       16.98000        0.06000
C          2.61700       18.24600        1.70200
H          3.58800       17.99900        2.13400
H          2.74100       19.18900        1.16600
C          1.63300       18.47300        2.86700
H          1.77300       17.66700        3.59100
H          1.89500       19.40700        3.36900
C          0.16300       18.51800        2.43100
O         -0.16100       19.33000        1.53600
O         -0.60400       17.65200        2.90600
C          1.93400       15.80300        1.34900
O          2.85300       15.03900        1.64100
N          0.64700       15.46200        1.50000
H         -0.03000       16.19400        1.31800
C          0.12700       14.24000        2.13600
H         -0.95600       14.29800        2.01900
C          0.56800       12.95900        1.38900
H          1.58500       12.70500        1.68700
H         -0.07900       12.13400        1.68300
C          0.52400       13.08900       -0.12200
O         -0.47800       12.82800       -0.76600
N          1.61100       13.51600       -0.71800
H          2.35500       13.85400       -0.12500
H          1.50100       13.87100       -1.65300
C          0.35000       14.18700        3.66400
O          0.55200       13.12600        4.24900
N          0.31100       15.32500        4.34200
H          0.46200       15.30500        5.33400
H          0.07400       16.18800        3.85900
