40
-1 1
H         -2.02200        5.41300       -7.29700
C         -1.27900        5.35700       -8.09200
H         -1.49400        4.50100       -8.72700
H         -0.28100        5.27100       -7.66700
C         -1.35700        6.61400       -8.92300
O         -0.36500        7.31100       -9.08800
N         -2.54700        6.89800       -9.43700
H         -3.32500        6.27100       -9.22100
C         -2.87800        8.11000      -10.20400
H         -2.05600        8.30500      -10.89300
C         -4.14600        7.84400      -11.04700
H         -4.18900        8.58900      -11.84300
H         -4.03800        6.87200      -11.53200
C         -5.49800        7.87300      -10.30400
H         -5.77400        8.91800      -10.14200
H         -6.26200        7.43800      -10.95300
C         -5.48900        7.13600       -8.95700
O         -5.10100        5.94600       -8.93900
O         -5.77800        7.79700       -7.93500
C         -3.03400        9.38000       -9.34400
O         -3.08600       10.47900       -9.89200
N         -3.11300        9.22100       -8.01500
H         -3.17100        8.26300       -7.70100
C         -3.28700       10.26700       -6.98400
H         -3.57700        9.72300       -6.08700
C         -1.97100       10.99100       -6.61200
H         -2.18500       11.65000       -5.76900
C         -0.91300        9.98800       -6.12600
H         -0.61200        9.33300       -6.94500
H         -0.03800       10.52600       -5.76300
H         -1.32100        9.38600       -5.31500
C         -1.34500       11.85000       -7.71700
H         -0.51400       12.42500       -7.31200
H         -0.98000       11.21600       -8.52500
H         -2.09100       12.53800       -8.11700
C         -4.48400       11.20600       -7.22000
O         -4.46700       12.38200       -6.86400
N         -5.57000       10.69500       -7.78200
H         -5.60400        9.70000       -7.98700
H         -6.35800       11.29200       -7.95300
