48
0 1
H          1.90800       -5.22900        2.07200
C          0.98200       -4.68400        1.89500
H          0.31300       -4.81700        2.74400
H          0.50700       -5.05000        0.98700
C          1.29400       -3.21600        1.74100
O          2.45500       -2.81500        1.82500
N          0.26100       -2.41300        1.49800
H         -0.66400       -2.81000        1.48800
C          0.37600       -0.94900        1.50800
H          1.34200       -0.71700        1.08500
C         -0.69600       -0.27400        0.62100
H         -1.48400       -0.98700        0.37500
H         -1.16200        0.54100        1.17700
C         -0.11900        0.31200       -0.68600
H          0.12200       -0.51900       -1.35200
H         -0.88600        0.91900       -1.17100
C          1.14400        1.16300       -0.46000
O          1.17100        1.96000        0.50600
O          2.18500        0.89200       -1.10300
C          0.41800       -0.36000        2.92700
O          0.00900       -0.99100        3.90100
N          0.94500        0.86400        3.02700
H          1.18800        1.32200        2.14900
C          1.15400        1.61800        4.27200
H          0.39800        1.29700        4.99100
C          2.53500        1.25500        4.85300
H          2.58300        1.62200        5.88000
H          2.62400        0.16800        4.90100
C          3.72500        1.85200        4.07200
H          3.37200        2.39400        3.19600
H          4.21600        2.58100        4.71800
C          4.77900        0.81900        3.63500
H          5.65900        1.35400        3.27100
H          5.08500        0.23900        4.50800
N          4.30900       -0.10100        2.57700
H          4.14700       -1.06400        2.83500
C          4.06300        0.19100        1.31100
N          4.10300        1.39500        0.82600
H          3.55100        1.52800       -0.02800
H          4.24800        2.17300        1.43100
N          3.71000       -0.73200        0.47600
H          3.47600       -1.65700        0.81900
H          3.32900       -0.39900       -0.41200
C          0.96200        3.13600        4.11700
O          1.08300        3.86900        5.08800
N          0.69800        3.64000        2.91900
H          0.65400        3.04100        2.10300
H          0.57100        4.63300        2.83900
