46
0 1
H          6.76700        2.95000       -0.45400
C          6.24400        2.03300       -0.19300
H          6.41400        1.79800        0.85600
H          6.59700        1.21100       -0.81500
C          4.76400        2.21900       -0.41800
O          4.15300        1.47500       -1.17100
N          4.19700        3.24600        0.20200
H          4.79600        3.90500        0.69100
C          2.78300        3.62600        0.08300
H          2.18400        2.73700        0.28800
C          2.43900        4.67800        1.16300
H          1.37100        4.58100        1.36300
H          2.95200        4.41900        2.09100
C          2.68900        6.17200        0.85700
H          2.12100        6.44900       -0.03300
H          2.27200        6.74500        1.68800
C          4.15200        6.61100        0.66500
O          4.41900        7.83200        0.64200
O          5.06000        5.77800        0.42100
C          2.39600        4.09100       -1.33200
O          1.25300        3.92000       -1.74400
N          3.35900        4.62300       -2.10200
H          4.25700        4.75500       -1.65800
C          3.21300        4.88900       -3.54800
H          2.15900        5.12300       -3.71100
C          3.99500        6.14400       -3.99300
H          3.64600        6.39300       -4.99800
H          3.70800        6.98300       -3.36000
C          5.53400        6.03200       -4.07200
H          5.80400        5.08400       -4.53800
H          5.89200        6.82400       -4.73100
C          6.29300        6.15900       -2.74200
H          5.96000        5.37700       -2.06000
H          7.35700        6.00900       -2.93300
C          6.08700        7.54000       -2.10600
H          6.50700        8.31700       -2.74900
H          5.01100        7.71700       -2.01500
N          6.66200        7.60500       -0.74600
H          6.34000        6.78400       -0.22500
H          7.66200        7.69200       -0.70700
H          6.17200        8.31800       -0.20500
C          3.45300        3.66600       -4.45400
O          3.60000        3.81100       -5.66100
N          3.54000        2.46000       -3.91400
H          3.42900        2.33300       -2.91800
H          3.69000        1.67400       -4.52200
