41
-1 1
H          7.00000       10.57900       -4.95900
C          7.93700       10.88300       -4.49900
H          8.06200       11.96100       -4.59100
H          8.77100       10.37300       -4.97500
C          7.90800       10.52000       -3.03400
O          8.01400       11.39300       -2.18500
N          7.77100        9.22900       -2.75600
H          7.75800        8.57000       -3.52000
C          7.77100        8.63100       -1.41400
H          8.48300        9.17400       -0.79000
C          6.36400        8.75100       -0.77600
H          5.67900        9.22700       -1.47900
H          5.95800        7.75900       -0.57100
C          6.35900        9.58400        0.52300
H          6.71900       10.59000        0.29500
H          5.32700        9.67400        0.86800
C          7.20600        8.96600        1.64600
O          7.95300        9.70900        2.32200
O          7.15600        7.72400        1.79600
C          8.26300        7.16800       -1.50400
O          8.52900        6.66000       -2.59700
N          8.42600        6.50100       -0.36100
H          8.12300        6.96300        0.49700
C          9.11900        5.21200       -0.19400
H          9.11100        4.66700       -1.13800
C         10.58600        5.48600        0.20600
H         11.09000        4.53900        0.40200
H         11.09500        5.97500       -0.62500
C         10.69900        6.36400        1.42900
N         10.54000        5.92600        2.74500
C         10.21800        7.02000        3.45300
H          9.88400        7.00200        4.48100
N         10.19800        8.10900        2.66800
H          9.60400        8.92400        2.85600
C         10.53700        7.71800        1.39600
H         10.42400        8.31600        0.50500
C          8.43200        4.30400        0.84300
O          8.59900        3.08900        0.79800
N          7.61700        4.83800        1.74500
H          7.19100        4.23600        2.42500
H          7.50100        5.84700        1.79800
