31
-1 1
H         -1.65600        4.19800       -2.76000
C         -1.67100        3.11800       -2.89500
H         -2.44600        2.84100       -3.60700
H         -1.85000        2.63400       -1.93700
C         -0.33100        2.67300       -3.42600
O         -0.25900        2.05700       -4.48100
N          0.72100        2.99500       -2.68300
H          0.56100        3.57100       -1.85800
C          2.12900        2.78100       -3.05000
H          2.17300        2.08600       -3.89000
C          2.74600        4.11500       -3.53500
H          3.83300        4.02800       -3.48500
H          2.48800        4.23800       -4.58800
C          2.32500        5.41200       -2.80800
H          2.99200        6.21900       -3.12000
H          1.31900        5.68500       -3.13900
C          2.33100        5.28700       -1.28100
O          1.29300        4.85800       -0.72200
O          3.40300        5.50500       -0.68000
C          2.96900        2.11700       -1.93700
O          3.87500        1.34500       -2.24700
N          2.64600        2.34200       -0.65800
H          1.97900        3.08800       -0.46800
C          3.29500        1.69200        0.48800
H          2.63000        1.77200        1.34600
H          3.43800        0.63500        0.26300
C          4.65500        2.27300        0.90200
O          5.40400        1.62100        1.62400
N          5.01500        3.47600        0.48000
H          5.90800        3.84000        0.75600
H          4.36800        4.05300       -0.05300
