48
0 1
H          3.50700        5.13700        1.57300
C          3.05800        4.82900        0.63000
H          2.49400        5.65600        0.20400
H          2.40800        3.97400        0.80400
C          4.16000        4.43300       -0.32100
O          4.36200        5.08500       -1.33700
N          4.82700        3.32900       -0.01400
H          4.49900        2.78500        0.78400
C          5.96900        2.76100       -0.74800
H          6.72700        3.54100       -0.82500
C          6.57600        1.61400        0.09000
H          7.59400        1.45600       -0.26900
H          6.66100        1.94800        1.12500
C          5.87700        0.23800        0.07600
H          5.97700       -0.17600       -0.93000
H          6.42600       -0.42400        0.74900
C          4.38900        0.20600        0.47000
O          3.86600        1.11300        1.15500
O          3.67000       -0.69400       -0.00600
C          5.64700        2.34000       -2.19600
O          6.54000        2.28100       -3.03700
N          4.36000        2.14400       -2.51000
H          3.72000        2.15900       -1.73000
C          3.80200        2.22400       -3.87400
H          4.46900        2.88000       -4.43800
C          3.84800        0.87200       -4.62300
H          3.26300        0.96100       -5.53900
H          4.88300        0.72200       -4.93700
C          3.42900       -0.42100       -3.90000
H          3.52800       -1.23300       -4.62100
H          4.13400       -0.62900       -3.09200
C          1.99500       -0.46400       -3.35400
H          1.32500        0.10200       -3.99900
H          1.66400       -1.50400       -3.37200
N          1.95500       -0.01300       -1.95600
H          2.62500       -0.46600       -1.32900
C          1.15600        0.82700       -1.34000
N          0.23500        1.50500       -1.96400
H         -0.36700        2.12400       -1.46300
H          0.27400        1.51300       -2.97600
N          1.31400        1.02100       -0.06600
H          2.14800        0.60400        0.37900
H          0.74400        1.64000        0.46600
C          2.46100        2.96800       -3.90400
O          1.43900        2.47100       -4.36800
N          2.41900        4.15300       -3.31900
H          3.25500        4.53300       -2.89000
H          1.56100        4.67500       -3.33900
