35
-1 1
H          3.33600        5.42300        3.08700
C          3.31100        6.00800        2.17000
H          3.30500        7.07100        2.40000
H          2.42200        5.74300        1.59800
C          4.53300        5.68400        1.34800
O          5.37200        6.54600        1.11500
N          4.61200        4.44100        0.89000
H          3.82300        3.82000        1.07900
C          5.65600        3.93000       -0.01300
H          6.62100        4.05700        0.47700
C          5.43400        2.41700       -0.24800
H          6.32800        2.01300       -0.72500
H          5.34700        1.93100        0.72500
C          4.21700        2.01000       -1.10800
H          4.43600        2.24900       -2.15100
H          4.09200        0.92700       -1.04400
C          2.91200        2.70200       -0.68600
O          2.37100        3.47600       -1.51000
O          2.54400        2.58300        0.50400
C          5.73700        4.69500       -1.34800
O          6.82600        4.88900       -1.88300
N          4.59800        5.17700       -1.85300
H          3.73300        4.86900       -1.41800
C          4.47900        6.00800       -3.05800
H          5.10900        5.57800       -3.83700
C          3.02600        5.98100       -3.55200
H          2.37500        6.42500       -2.79800
H          2.95000        6.56600       -4.46900
O          2.59300        4.66000       -3.82200
H          2.46400        4.18700       -2.96000
C          4.93200        7.46500       -2.85400
O          4.85400        8.27800       -3.77100
N          5.38400        7.85500       -1.66700
H          5.45700        7.19000       -0.90800
H          5.68200        8.80700       -1.55300
