39
-2 1
H          4.25700        9.63900       -2.31900
C          4.64100        9.55000       -1.30200
H          4.47200       10.47300       -0.75300
H          5.70300        9.31700       -1.33300
C          3.91900        8.42200       -0.60800
O          3.38400        8.60600        0.47900
N          3.90200        7.26300       -1.25300
H          4.28700        7.24200       -2.19900
C          3.20100        6.05000       -0.81200
H          2.21300        6.33200       -0.44700
C          3.02000        5.10700       -2.02000
H          3.99700        4.81200       -2.40800
H          2.53000        4.20000       -1.66300
C          2.14700        5.66500       -3.16500
H          1.86400        4.82400       -3.80100
H          1.22700        6.06500       -2.73200
C          2.80400        6.73500       -4.06200
O          2.04700        7.38100       -4.82100
O          4.04400        6.91300       -3.99600
C          3.89300        5.29800        0.34700
O          3.28800        4.41400        0.94900
N          5.14500        5.64300        0.66400
H          5.55400        6.41000        0.15000
C          5.96300        5.07900        1.74900
H          5.31600        4.83700        2.59400
C          6.63000        3.77200        1.26500
H          5.84900        3.02800        1.10200
H          7.09100        3.97200        0.29600
C          7.72000        3.13300        2.15200
H          8.11400        2.26900        1.61100
H          8.54900        3.83600        2.25800
C          7.25700        2.68400        3.55100
O          7.56900        1.53000        3.91800
O          6.65700        3.51400        4.27400
C          6.98900        6.12800        2.22500
O          7.44400        6.98200        1.46400
N          7.38000        6.09200        3.49000
H          7.05500        5.32500        4.07500
H          8.05500        6.76000        3.81200
