45
-1 1
H          2.15600        9.15200        6.73800
C          3.16600        9.55400        6.76100
H          3.27600       10.17600        7.64800
H          3.36000       10.14100        5.86600
C          4.15600        8.42000        6.84100
O          5.05300        8.31700        6.01200
N          3.97700        7.55700        7.83500
H          3.16500        7.69600        8.43500
C          4.91400        6.48900        8.22800
H          5.88200        6.93500        8.45800
C          4.37900        5.79000        9.49600
H          3.44300        5.28000        9.26400
H          5.10000        5.02100        9.77600
C          4.17700        6.69600       10.73000
H          4.02100        6.04800       11.59500
H          5.10300        7.25000       10.90200
C          2.99100        7.67800       10.64900
O          3.06000        8.72200       11.32700
O          2.03300        7.41700        9.87800
C          5.14900        5.43400        7.12700
O          6.16600        4.74400        7.10800
N          4.19500        5.32000        6.20500
H          3.39400        5.92200        6.33800
C          4.14100        4.40300        5.05800
H          4.68300        3.49500        5.32500
C          2.66100        4.01600        4.78100
H          2.43500        4.12500        3.71900
H          2.53100        2.96100        5.02700
C          1.65400        4.82400        5.58700
C          1.18000        6.05200        5.08500
H          1.37900        6.33100        4.05900
C          0.54000        6.96300        5.94800
H          0.22700        7.93300        5.59600
C          0.40700        6.65700        7.31900
O          0.00400        7.60900        8.19400
H          0.62200        7.60500        8.96200
C          0.81800        5.39900        7.80300
H          0.73800        5.19200        8.86000
C          1.42300        4.47500        6.93300
H          1.82200        3.55200        7.33100
C          4.84100        4.96900        3.80400
O          4.90300        4.30800        2.77200
N          5.36500        6.18900        3.84400
H          5.82700        6.54300        3.02600
H          5.31400        6.73600        4.69600
