35
-1 1
H         -5.33400       17.49500       11.51100
C         -4.94600       17.74300       10.52500
H         -3.92100       18.10300       10.60800
H         -5.56200       18.50800       10.05800
C         -4.96100       16.50700        9.66100
O         -5.45100       15.46300       10.07600
N         -4.38500       16.61900        8.46900
H         -3.89400       17.48800        8.25400
C         -4.20600       15.51000        7.51600
H         -5.18600       15.07200        7.32600
C         -3.66900       16.06000        6.17600
H         -3.85600       15.31400        5.40200
H         -4.25000       16.94400        5.90900
C         -2.17000       16.42200        6.12300
H         -1.59900       15.49500        6.03700
H         -1.98300       17.00200        5.21600
C         -1.68100       17.20900        7.34600
O         -2.29700       18.25500        7.65500
O         -0.76400       16.70000        8.02800
C         -3.31900       14.37200        8.05600
O         -3.37300       13.25700        7.54100
N         -2.55600       14.63700        9.12400
H         -2.47700       15.61100        9.38800
C         -1.71300       13.67800        9.84800
H         -1.21400       14.24200       10.63500
C         -2.57700       12.62200       10.55000
H         -3.08200       12.00300        9.80800
H         -1.94100       11.98500       11.16500
O         -3.54000       13.25400       11.38100
H         -4.11200       13.79800       10.81800
C         -0.57800       13.08300        8.99800
O         -0.17400       11.93700        9.17600
N         -0.02700       13.85600        8.07000
H          0.70600       13.48100        7.49600
H         -0.33200       14.82200        7.97800
