38
-1 1
H          4.58400        3.59900       -1.70400
C          4.54100        3.51100       -0.61900
H          5.10900        2.63800       -0.30400
H          3.50600        3.42500       -0.29300
C          5.15400        4.74300       -0.00400
O          4.52500        5.41400        0.80700
N          6.37500        5.06000       -0.41700
H          6.78500        4.50600       -1.17100
C          7.10600        6.27300       -0.01500
H          7.14400        6.29500        1.07400
C          8.55900        6.19800       -0.53600
H          9.15700        6.92200        0.01800
H          8.95800        5.21000       -0.29900
C          8.77500        6.46600       -2.04100
H          8.70500        7.54300       -2.20800
H          9.79100        6.16500       -2.30600
C          7.77200        5.74100       -2.94800
O          7.04700        6.44700       -3.68400
O          7.65300        4.50100       -2.82100
C          6.41500        7.58000       -0.45200
O          6.67000        8.63100        0.13000
N          5.50700        7.50400       -1.43200
H          5.46200        6.62600       -1.93500
C          4.71000        8.62300       -1.96400
H          4.12700        8.21200       -2.78600
C          3.68900        9.12100       -0.91900
H          4.20700        9.65200       -0.11900
C          2.58300       10.01400       -1.48900
H          1.83800       10.20100       -0.71600
H          2.98900       10.97200       -1.80800
H          2.10600        9.51900       -2.33500
O          3.00200        8.01400       -0.36900
H          3.66100        7.42900        0.02900
C          5.59200        9.71200       -2.60400
O          5.36200       10.91100       -2.48300
N          6.64000        9.31000       -3.31200
H          7.24500        9.99900       -3.71800
H          6.81500        8.31400       -3.43100
