35
-1 1
H          7.04000        4.69400       -4.68700
C          6.40100        5.16600       -3.94400
H          5.65500        4.46000       -3.58700
H          5.90500        6.03400       -4.37600
C          7.24800        5.61700       -2.77900
O          8.45000        5.38500       -2.76500
N          6.60600        6.25900       -1.81200
H          5.61700        6.46000       -1.95100
C          7.23100        6.89100       -0.64000
H          8.26400        6.55000       -0.56200
C          7.27400        8.42500       -0.84200
H          7.44300        8.89300        0.12800
H          8.14500        8.65600       -1.45800
C          6.05300        9.10300       -1.50600
H          6.13300       10.18300       -1.36200
H          6.09900        8.92000       -2.58200
C          4.70700        8.60100       -0.97300
O          4.19800        7.59400       -1.52200
O          4.24800        9.13400        0.05900
C          6.57600        6.50100        0.70300
O          7.27300        6.42900        1.71300
N          5.27300        6.19000        0.71700
H          4.74800        6.40000       -0.13000
C          4.49200        5.81100        1.90100
H          3.45400        5.76500        1.57100
C          4.89400        4.38800        2.32800
H          4.95300        3.74900        1.44600
H          5.87600        4.42500        2.80300
S          3.67700        3.69300        3.48300
H          3.84500        4.66500        4.39800
C          4.50200        6.86700        3.03800
O          4.44900        6.54400        4.22400
N          4.55900        8.15200        2.71300
H          4.54000        8.43300        1.73500
H          4.58200        8.83700        3.44500
