38
-1 1
H          6.19400       -0.31600      -10.58400
C          6.58800        0.32100       -9.79500
H          7.64200        0.53000       -9.97100
H          6.46000       -0.17300       -8.83400
C          5.82000        1.61900       -9.78500
O          6.38800        2.67800      -10.01900
N          4.52600        1.52800       -9.51000
H          4.14100        0.60000       -9.31900
C          3.60400        2.66700       -9.37300
H          3.83400        3.38100      -10.16400
C          2.15500        2.17700       -9.59000
H          1.52800        3.04600       -9.79600
H          2.13500        1.55500      -10.48700
C          1.50000        1.39000       -8.43600
H          1.19500        2.10400       -7.66800
H          0.59000        0.91500       -8.81000
C          2.41200        0.32600       -7.80900
O          2.91800       -0.53400       -8.56400
O          2.68800        0.44300       -6.59500
C          3.74600        3.43600       -8.04300
O          3.27200        4.56600       -7.93900
N          4.39900        2.83700       -7.03800
H          4.64800        1.86900       -7.18600
C          4.59300        3.38200       -5.68800
H          5.04900        2.57700       -5.11100
C          5.62300        4.53400       -5.74800
H          6.36800        4.30900       -6.51200
H          5.11800        5.45600       -6.03400
C          6.37300        4.75800       -4.44500
O          7.56900        4.55000       -4.33800
N          5.70600        5.17600       -3.39800
H          4.69900        5.28200       -3.48200
H          6.21600        5.29900       -2.54700
C          3.25900        3.69700       -4.96100
O          3.12800        4.68000       -4.23200
N          2.24400        2.86300       -5.12900
H          1.36600        3.06500       -4.68800
H          2.36900        2.02700       -5.69700
