48
0 1
H          6.43200        6.04000        6.10700
C          6.97500        5.26300        5.57000
H          6.40800        4.95800        4.69300
H          7.14000        4.41100        6.22500
C          8.30900        5.81700        5.13200
O          8.61500        6.97000        5.39800
N          9.09600        4.99000        4.45100
H          8.76100        4.06100        4.24500
C         10.43200        5.33300        3.94600
H         10.44800        6.39600        3.69500
C         11.49000        5.06300        5.04200
H         10.98500        4.83100        5.98100
H         12.08600        4.18700        4.77800
C         12.42600        6.25100        5.31800
H         11.83600        7.16100        5.44200
H         12.94700        6.06300        6.26000
C         13.45700        6.44100        4.20400
O         14.63900        6.09000        4.39900
O         13.07800        6.84100        3.08100
C         10.71500        4.53300        2.66000
O         10.26600        3.39300        2.51700
N         11.46300        5.11100        1.71400
H         11.90900        5.99200        1.97300
C         11.75000        4.55400        0.37500
H         10.85000        4.02100        0.06400
C         11.94500        5.69300       -0.64900
H         12.21800        5.26300       -1.61400
H         10.97100        6.16400       -0.78800
C         12.93600        6.82600       -0.31300
H         12.85800        7.55700       -1.11800
H         12.63000        7.33700        0.59900
C         14.41400        6.42300       -0.21800
H         14.63700        5.70600       -1.00900
H         15.01300        7.31600       -0.40600
N         14.79600        5.90700        1.11200
H         14.36500        6.36400        1.92400
C         15.72600        5.01000        1.37900
N         16.21700        4.23200        0.45700
H         15.65000        4.13900       -0.37500
H         16.90100        3.54500        0.68900
N         16.17000        4.84800        2.58500
H         15.71300        5.39300        3.33100
H         16.87000        4.18100        2.82200
C         12.83300        3.46200        0.35900
O         13.67200        3.39100       -0.53700
N         12.86200        2.60800        1.36800
H         12.13200        2.66600        2.06600
H         13.54700        1.87400        1.37500
