44
-1 1
H          1.99900        5.53700       -4.96400
C          1.79500        6.58300       -4.74600
H          0.82900        6.68000       -4.25300
H          1.79400        7.16800       -5.66400
C          2.86400        7.11600       -3.82500
O          3.75800        6.38000       -3.42500
N          2.76800        8.39900       -3.50000
H          2.01400        8.94700       -3.91700
C          3.63400        9.09500       -2.53600
H          4.62600        8.64700       -2.58900
C          3.77500       10.57600       -2.95300
H          4.66100       10.98200       -2.46400
H          3.96600       10.61200       -4.02700
C          2.59700       11.52200       -2.63600
H          2.65100       11.78300       -1.57700
H          2.73200       12.44700       -3.20000
C          1.21100       10.93500       -2.94200
O          0.39000       10.88300       -2.00000
O          1.00600       10.45200       -4.07800
C          3.17200        8.95200       -1.07200
O          3.97700        9.13700       -0.16200
N          1.89800        8.60300       -0.84900
H          1.29500        8.57100       -1.66000
C          1.25100        8.44200        0.46300
H          0.19100        8.30700        0.25500
C          1.72600        7.14800        1.15200
H          2.79100        7.22900        1.37200
H          1.20600        7.04600        2.10500
C          1.47900        5.88900        0.33800
C          2.44600        5.43400       -0.57700
H          3.37200        5.97900       -0.70100
C          2.20100        4.29200       -1.35800
H          2.94200        3.96900       -2.07700
C          0.99000        3.59100       -1.22000
H          0.80100        2.71600       -1.82500
C          0.02300        4.03700       -0.30100
H         -0.91100        3.50400       -0.19700
C          0.26700        5.18600        0.47400
H         -0.48200        5.53600        1.17000
C          1.30800        9.70000        1.35700
O          1.39900        9.62300        2.58100
N          1.22000       10.88600        0.77100
H          1.05800       10.93300       -0.23200
H          1.26700       11.71300        1.33500
