48
0 1
H          7.91900       15.89300        4.97600
C          8.50900       15.83800        4.06300
H          9.55300       16.04800        4.28900
H          8.13800       16.56400        3.34100
C          8.39600       14.45200        3.47900
O          9.40000       13.75600        3.33000
N          7.17300       14.04500        3.14500
H          6.39200       14.66500        3.29200
C          6.90000       12.72900        2.55600
H          7.61500       12.05100        3.00600
C          5.50700       12.19700        2.95700
H          5.41400       12.28500        4.04000
H          4.73000       12.81500        2.50600
C          5.27100       10.71600        2.57900
H          4.41700       10.34000        3.14600
H          5.01100       10.66100        1.52000
C          6.50100        9.83300        2.84700
O          7.01200        9.84200        3.98800
O          7.08900        9.28900        1.88700
C          7.18000       12.68800        1.04400
O          6.27600       12.65500        0.21000
N          8.47000       12.68800        0.68400
H          9.14400       12.81700        1.42800
C          8.96300       12.31700       -0.65400
H          8.30500       12.78800       -1.38800
C         10.38400       12.87300       -0.91200
H         10.83400       12.32200       -1.73900
H         10.25800       13.89700       -1.26900
C         11.40900       12.94800        0.24100
H         12.33400       13.32900       -0.19300
H         11.08000       13.69600        0.96500
C         11.76300       11.64500        0.98100
H         11.63500       10.78500        0.32700
H         12.82400       11.68700        1.23700
N         11.01300       11.50700        2.24500
H         11.10600       12.26200        2.90800
C         10.13700       10.58200        2.59100
N          9.77100        9.61300        1.81200
H         10.10200        9.58300        0.85900
H          8.85700        9.18300        2.00100
N          9.56000       10.67700        3.74800
H          8.73000       10.09400        3.92500
H          9.69900       11.48400        4.32300
C          8.80800       10.80900       -0.91900
O          9.78700       10.07300       -0.99800
N          7.58200       10.32100       -0.97800
H          6.80200       10.93700       -0.79200
H          7.45600        9.32300       -1.00600
