39
-2 1
H          6.36200       12.56500       -7.17900
C          5.71700       11.99800       -7.84700
H          6.09800       12.07000       -8.86400
H          4.69600       12.36800       -7.79600
C          5.74200       10.55100       -7.42100
O          4.72200       10.01600       -7.00000
N          6.90600        9.93300       -7.56300
H          7.67500       10.45300       -7.98700
C          7.19300        8.54100       -7.20900
H          6.41500        7.91000       -7.63900
C          8.54500        8.12500       -7.82300
H          9.35500        8.69300       -7.36100
H          8.70400        7.07500       -7.57100
C          8.63300        8.24900       -9.36000
H          9.30800        7.46200       -9.70700
H          7.65300        8.04000       -9.79400
C          9.16300        9.59900       -9.89400
O          8.99500       10.64000       -9.21500
O          9.72600        9.58600      -11.01300
C          7.20000        8.28800       -5.68600
O          7.55100        9.16000       -4.88800
N          6.85500        7.06500       -5.27100
H          6.64100        6.34700       -5.96300
C          6.93000        6.60500       -3.87600
H          6.85500        7.47700       -3.22600
C          5.72300        5.69400       -3.56100
H          5.59600        5.70800       -2.47700
H          4.82100        6.13600       -3.98500
C          5.79200        4.20700       -3.97400
H          6.67900        3.74900       -3.53300
H          4.93200        3.70700       -3.52200
C          5.78200        3.94200       -5.49100
O          4.91500        3.15400       -5.92800
O          6.65800        4.49200       -6.19900
C          8.26800        5.92000       -3.53700
O          8.71700        5.93300       -2.39300
N          8.93100        5.31400       -4.51400
H          9.80300        4.86300       -4.30900
H          8.47400        5.21800       -5.41600
