38
-1 1
H         -2.57800       13.16000        3.87000
C         -1.86500       12.43600        4.25800
H         -1.54100       12.72100        5.25700
H         -1.00700       12.37900        3.59000
C         -2.52600       11.08200        4.31900
O         -2.72400       10.53500        5.39700
N         -2.84100       10.53300        3.15200
H         -2.58300       11.04400        2.30600
C         -3.39600        9.18200        2.96800
H         -4.32500        9.11800        3.53600
C         -3.73400        8.96800        1.47500
H         -4.35300        8.07300        1.39200
H         -4.34300        9.80800        1.13700
C         -2.54100        8.80500        0.50700
H         -2.08500        7.82700        0.68200
H         -2.92200        8.80500       -0.51700
C         -1.47600        9.90200        0.65300
O         -1.84700       11.09500        0.60500
O         -0.31100        9.55700        0.95400
C         -2.48000        8.06200        3.49600
O         -2.96500        7.01400        3.91700
N         -1.16500        8.29500        3.51600
H         -0.83900        9.13400        3.05100
C         -0.15600        7.41800        4.11100
H         -0.36500        6.39600        3.79100
C          1.22200        7.82600        3.55500
H          1.98200        7.15700        3.95800
H          1.21600        7.71800        2.47000
C          1.61700        9.25300        3.90400
O          2.19300        9.53000        4.94100
N          1.32800       10.20900        3.05500
H          0.83200        9.99500        2.18000
H          1.59800       11.14000        3.29500
C         -0.16800        7.39900        5.65700
O          0.48100        6.55500        6.27000
N         -0.89200        8.29200        6.32100
H         -0.88400        8.26600        7.32500
H         -1.45100        8.97100        5.82000
