39
-2 1
H          6.16900        8.61900       -0.27400
C          6.05900        8.13100        0.69300
H          6.92300        8.32100        1.32400
H          5.93800        7.05700        0.55100
C          4.82000        8.65500        1.37400
O          4.87400        9.07000        2.53000
N          3.70600        8.66300        0.65000
H          3.77000        8.39700       -0.33200
C          2.40200        9.13300        1.13100
H          2.52600       10.14100        1.52600
C          1.40700        9.19500       -0.04500
H          1.39200        8.24100       -0.57400
H          0.40900        9.34600        0.36900
C          1.64900       10.35300       -1.03400
H          0.75700       10.44300       -1.65800
H          1.73500       11.28000       -0.46200
C          2.86700       10.20500       -1.96500
O          3.37500        9.07100       -2.12800
O          3.26700       11.24500       -2.53800
C          1.81300        8.29500        2.28600
O          0.90800        8.77100        2.97500
N          2.31000        7.07900        2.54100
H          3.04900        6.71200        1.93700
C          1.96600        6.28900        3.73300
H          0.90500        6.44100        3.92800
C          2.16000        4.78300        3.45500
H          1.53000        4.24600        4.16700
H          1.77300        4.54600        2.46300
C          3.58300        4.20200        3.60100
H          3.93100        4.37000        4.62200
H          3.50800        3.11900        3.47100
C          4.63100        4.73200        2.60800
O          4.23700        5.30300        1.56700
O          5.83300        4.52700        2.89100
C          2.70200        6.74200        5.01000
O          2.33000        6.35700        6.11800
N          3.73900        7.56500        4.90100
H          4.03200        7.88500        3.98400
H          4.22800        7.84700        5.72900
