38
-1 1
H         -1.12800        0.06500        1.68400
C         -1.42100       -0.68000        0.94400
H         -2.45300       -0.97400        1.12100
H         -0.76500       -1.54600        1.00500
C         -1.31300       -0.06800       -0.42900
O         -0.62400       -0.59700       -1.29400
N         -1.97800        1.06400       -0.61400
H         -2.47400        1.45200        0.19000
C         -1.92600        1.89800       -1.82600
H         -2.26200        1.29100       -2.66700
C         -2.90300        3.08700       -1.68100
H         -2.99600        3.57300       -2.65400
H         -3.88800        2.69000       -1.42900
C         -2.53300        4.17100       -0.64500
H         -1.69100        4.75000       -1.03100
H         -3.37700        4.85600       -0.53900
C         -2.17400        3.58300        0.72700
O         -0.98800        3.69000        1.11000
O         -3.03100        2.87500        1.30100
C         -0.50600        2.38200       -2.17800
O         -0.15900        2.45200       -3.35500
N          0.33900        2.65700       -1.17800
H         -0.04800        2.71700       -0.23500
C          1.76500        2.97800       -1.35400
H          1.84000        3.67000       -2.19200
C          2.29900        3.71800       -0.11200
H          1.64500        4.56300        0.10500
C          2.40200        2.84100        1.13800
H          3.09600        2.01700        0.97800
H          2.75200        3.45000        1.97100
H          1.41800        2.44600        1.39200
O          3.59400        4.21000       -0.37700
H          4.07400        3.48100       -0.79800
C          2.64200        1.76300       -1.71200
O          3.86100        1.88700       -1.82400
N          2.08800        0.56800       -1.87200
H          2.67500       -0.21100       -2.10800
H          1.08500        0.45400       -1.78000
