40
-1 1
H          1.21600        7.28900       14.49500
C          1.17000        7.07300       15.56000
H          0.13400        6.97200       15.87600
H          1.65200        7.87100       16.12200
C          1.89500        5.77700       15.83200
O          2.85700        5.76200       16.58700
N          1.42400        4.70400       15.20800
H          0.64800        4.81100       14.57200
C          1.97800        3.34600       15.29000
H          3.06500        3.40900       15.36800
C          1.42600        2.63700       16.55200
H          1.07900        3.38600       17.26600
H          0.56200        2.03000       16.27900
C          2.45300        1.76300       17.29200
H          3.26500        2.40000       17.65000
H          1.97000        1.32000       18.16600
C          3.01500        0.65700       16.39900
O          2.31600       -0.36300       16.22100
O          4.07000        0.89500       15.77000
C          1.62300        2.58700       13.99100
O          0.66100        2.95000       13.30800
N          2.39200        1.55800       13.62900
H          3.14600        1.28600       14.26200
C          2.16400        0.69500       12.45600
H          1.92300        1.32600       11.60200
C          3.45300       -0.09600       12.13400
H          3.69800       -0.73700       12.98100
C          3.31000       -0.98400       10.88900
H          4.25800       -1.47400       10.67100
H          2.56400       -1.75800       11.06400
H          3.00600       -0.38000       10.03400
C          4.64300        0.84400       11.88200
H          4.40800        1.53900       11.07600
H          4.87100        1.40600       12.78900
H          5.52700        0.26400       11.62000
C          0.97800       -0.26200       12.65900
O          0.26900       -0.58800       11.71000
N          0.71900       -0.72300       13.87500
H         -0.06500       -1.33500       14.00500
H          1.33000       -0.48900       14.65400
