45
-1 1
H          7.86400        6.12700       -7.94300
C          8.19200        5.10900       -7.74100
H          9.23100        5.10400       -7.41900
H          8.07600        4.51800       -8.64700
C          7.32600        4.52800       -6.65200
O          7.80100        4.28500       -5.54900
N          6.05600        4.30300       -6.96700
H          5.77600        4.52200       -7.92300
C          4.99600        3.90700       -6.02000
H          4.91400        4.67500       -5.25000
C          3.64200        3.80600       -6.75800
H          3.58800        2.85100       -7.28500
H          2.85900        3.79800       -5.99800
C          3.32600        4.93500       -7.75700
H          2.24300        5.08200       -7.77300
H          3.77300        5.87200       -7.41600
C          3.79900        4.58800       -9.17900
O          3.00100        3.99800       -9.93600
O          4.98500        4.85000       -9.49300
C          5.27400        2.56800       -5.30700
O          4.85000        2.34200       -4.17700
N          6.00300        1.68700       -5.98900
H          6.27600        1.98100       -6.91800
C          6.45400        0.35100       -5.57500
H          5.68900       -0.08600       -4.93200
C          6.59300       -0.54000       -6.84000
H          7.46300       -1.19200       -6.75400
H          5.71500       -1.18500       -6.89600
C          6.68300        0.25400       -8.13500
C          5.49200        0.63500       -8.78600
H          4.54100        0.23100       -8.46700
C          5.51600        1.65100       -9.75600
H          4.59600        2.01300      -10.19700
C          6.73300        2.27100      -10.09800
O          6.72600        3.37300      -10.88700
H          5.99500        3.96100      -10.59200
C          7.93900        1.82400       -9.51600
H          8.86200        2.31400       -9.78200
C          7.91200        0.82300       -8.52400
H          8.82200        0.55100       -8.00700
C          7.75200        0.38000       -4.74000
O          8.24700       -0.66000       -4.31800
N          8.34600        1.54200       -4.49000
H          7.93900        2.40600       -4.83000
H          9.18300        1.54600       -3.93600
