41
-1 1
H          3.82300       10.98600        3.14000
C          3.47300       10.71000        4.13200
H          3.91100       11.37400        4.87500
H          3.75200        9.68000        4.34200
C          1.97000       10.82900        4.16900
O          1.26900        9.83100        4.05100
N          1.46800       12.04800        4.33200
H          2.10700       12.84500        4.34500
C          0.03000       12.35400        4.38000
H         -0.43100       11.67500        5.09700
C         -0.18200       13.79400        4.89800
H         -1.21400       13.87400        5.24200
H          0.45300       13.94400        5.77300
C          0.06100       14.95200        3.90700
H         -0.75100       14.95100        3.17600
H         -0.00300       15.89400        4.45700
C          1.40700       14.89300        3.16900
O          1.40500       15.07800        1.93100
O          2.43500       14.57100        3.80900
C         -0.68500       12.11400        3.03800
O         -1.88200       11.83600        3.01700
N          0.05500       12.17100        1.92700
H          1.02000       12.46300        2.02700
C         -0.41900       11.83200        0.58300
H         -1.45500       12.16400        0.51300
C          0.38500       12.63300       -0.46300
H         -0.20200       12.64900       -1.38200
H          0.47200       13.66800       -0.13100
C          1.78400       12.09800       -0.83100
H          1.67900       11.12400       -1.30900
H          2.21700       12.77700       -1.56400
C          2.78300       11.96800        0.31900
O          3.44400       10.95500        0.47100
N          2.93900       12.94900        1.17700
H          2.37900       13.81100        1.16000
H          3.60600       12.84400        1.91800
C         -0.43100       10.31500        0.29400
O         -0.83500        9.89100       -0.78500
N          0.01400        9.46900        1.21600
H          0.34300        9.81300        2.10900
H          0.01200        8.48600        1.00900
