41
-1 1
H          6.09900       10.30900        1.62300
C          5.23400        9.67600        1.43800
H          4.35200       10.09300        1.92100
H          5.41100        8.67200        1.82000
C          4.98000        9.60100       -0.04600
O          5.56600       10.35300       -0.81700
N          4.08800        8.70100       -0.44300
H          3.67900        8.10800        0.28000
C          3.70000        8.45700       -1.84500
H          4.60200        8.24400       -2.41800
C          2.74800        7.24100       -1.95600
H          1.72000        7.57700       -1.81000
H          2.81800        6.87000       -2.97900
C          3.00500        6.05700       -1.00600
H          2.58900        5.15500       -1.46000
H          4.08000        5.90100       -0.88800
C          2.32500        6.28300        0.35300
O          1.08900        6.09700        0.44000
O          3.01900        6.75700        1.28100
C          3.00600        9.66500       -2.50500
O          2.88400        9.73700       -3.72600
N          2.50500       10.59600       -1.69000
H          2.64900       10.44400       -0.69800
C          1.51800       11.62100       -2.05500
H          0.85200       11.18400       -2.80000
C          0.67600       11.96800       -0.80600
H          1.14600       12.80500       -0.28600
H         -0.32100       12.28100       -1.11500
C          0.56700       10.82500        0.18100
N          1.43000       10.65400        1.26600
C          1.28800        9.37700        1.65400
H          1.88900        8.88500        2.41100
N          0.40300        8.74400        0.87100
H          0.34000        7.71800        0.82600
C         -0.06000        9.63700       -0.07000
H         -0.65000        9.40000       -0.94200
C          2.12500       12.87400       -2.70600
O          1.40500       13.79700       -3.07500
N          3.44200       12.94900       -2.84800
H          4.01200       12.17200       -2.54500
H          3.83800       13.76500       -3.27800
