38
-1 1
H          6.79600        5.27900       10.94500
C          7.84100        5.00000       10.82300
H          7.92100        4.11600       10.19400
H          8.28800        4.80400       11.79600
C          8.58200        6.14000       10.16700
O          9.52100        6.67100       10.74400
N          8.14700        6.50300        8.96600
H          7.34500        6.03200        8.57500
C          8.69000        7.59500        8.14700
H          9.01200        8.40500        8.80600
C          9.91400        7.08000        7.35100
H         10.33000        6.20200        7.84800
H          9.59200        6.76500        6.35800
C         11.05800        8.09800        7.22000
H         11.46500        8.30200        8.21300
H         11.85600        7.65600        6.61800
C         10.58300        9.39900        6.57700
O         10.44200        9.41900        5.33600
O         10.19800       10.31700        7.33400
C          7.56600        8.12400        7.22600
O          6.64400        7.37400        6.89600
N          7.59800        9.40200        6.83300
H          8.42700        9.95300        7.06800
C          6.57600       10.02500        5.97200
H          5.61700        9.56900        6.22000
C          6.44200       11.52600        6.28200
H          6.33600       11.65400        7.36000
C          7.61200       12.38500        5.80000
H          7.45300       13.41600        6.11100
H          8.54200       12.02700        6.24200
H          7.69800       12.34900        4.71400
O          5.28100       12.02600        5.65800
H          5.27100       11.65300        4.76500
C          6.77900        9.80100        4.46600
O          5.87500       10.08600        3.68200
N          7.93200        9.33100        4.01200
H          8.05200        9.20900        3.02300
H          8.72400        9.21700        4.64100
