35
-1 1
H         -2.00700       -3.76000        3.57700
C         -2.41200       -4.56500        2.96500
H         -3.32100       -4.22300        2.47400
H         -2.62200       -5.43500        3.58400
C         -1.39700       -4.93700        1.91400
O         -0.98900       -6.08800        1.82600
N         -0.99600       -3.95400        1.11800
H         -1.39700       -3.02700        1.27000
C          0.04600       -4.06900        0.08600
H         -0.12200       -4.99300       -0.46800
C         -0.09300       -2.88500       -0.89900
H          0.48000       -3.12300       -1.79700
H         -1.13900       -2.81500       -1.20300
C          0.36600       -1.49200       -0.40900
H          1.45900       -1.47000       -0.42600
H          0.01800       -0.74100       -1.12000
C         -0.12500       -1.12700        1.00100
O         -1.35000       -1.19500        1.23700
O          0.74000       -0.91900        1.88500
C          1.47600       -4.14800        0.65600
O          2.35900       -4.74400        0.04100
N          1.70700       -3.52800        1.81600
H          0.94400       -2.97800        2.19100
C          3.01100       -3.38700        2.47600
H          3.54400       -4.33500        2.41000
C          3.83400       -2.31200        1.74900
H          4.86600       -2.37000        2.09900
H          3.82900       -2.51400        0.67700
O          3.36300       -0.99400        1.97900
H          2.38100       -0.96100        1.86700
C          2.87100       -3.02200        3.96200
O          3.64500       -3.48300        4.79500
N          1.86300       -2.23800        4.33700
H          1.29300       -1.78500        3.63000
H          1.77600       -1.99900        5.30800
