48
-1 1
H          7.67000       10.64400       -0.74300
C          8.25700       10.00200       -0.09000
H          7.60100        9.35400        0.49000
H          8.85600       10.60300        0.59100
C          9.17900        9.14800       -0.92500
O          9.25300        9.31800       -2.13600
N          9.85200        8.20900       -0.27100
H          9.65200        8.10600        0.72500
C         10.80500        7.25700       -0.87000
H         11.62100        7.81900       -1.32500
C         11.39000        6.30100        0.20200
H         10.80400        5.38000        0.22400
H         12.38900        6.02300       -0.13500
C         11.50400        6.81100        1.65200
H         12.32100        6.27200        2.13800
H         11.77000        7.87100        1.65600
C         10.20800        6.56900        2.44700
O         10.13800        5.55900        3.18300
O          9.25600        7.36300        2.26600
C         10.15200        6.40200       -1.97000
O         10.78100        6.03000       -2.95800
N          8.86700        6.10800       -1.77600
H          8.47400        6.43900       -0.90800
C          8.02000        5.24000       -2.59300
H          8.63700        4.42700       -2.97600
C          6.95400        4.64000       -1.65900
H          6.23700        5.41800       -1.39100
H          6.41300        3.85800       -2.19300
C          7.52400        4.05800       -0.39400
C          7.72300        4.73900        0.76000
H          7.46400        5.77600        0.94100
N          8.45200        3.96700        1.63800
H          8.91000        4.37800        2.46400
C          8.72400        2.72300        1.11600
C          9.43400        1.61500        1.60200
H          9.88000        1.65500        2.58500
C          9.55900        0.47300        0.79300
H         10.10300       -0.38800        1.15300
C          8.98500        0.46000       -0.49200
H          9.09100       -0.41600       -1.11700
C          8.28800        1.58500       -0.97700
H          7.86700        1.57400       -1.97000
C          8.13600        2.74600       -0.18500
C          7.40400        5.95100       -3.81400
O          6.61800        5.36300       -4.55000
N          7.71700        7.22000       -4.04900
H          7.31700        7.67600       -4.85000
H          8.37400        7.69700       -3.44500
