48
-1 1
H          3.06200       11.32000       -4.27500
C          3.04700       12.40800       -4.27800
H          2.68500       12.77200       -3.31800
H          2.40700       12.77000       -5.08000
C          4.44900       12.91800       -4.49800
O          4.71200       13.59400       -5.48500
N          5.33700       12.59000       -3.56800
H          5.00600       12.08700       -2.74800
C          6.72700       13.06600       -3.50100
H          6.98000       13.55500       -4.44300
C          6.88300       14.12000       -2.37500
H          7.85100       13.98500       -1.89200
H          6.92200       15.09400       -2.86500
C          5.79700       14.23100       -1.27600
H          6.04900       15.09700       -0.66000
H          4.83500       14.45500       -1.74100
C          5.64500       12.99800       -0.36400
O          5.37700       11.88900       -0.89100
O          5.80600       13.16600        0.86500
C          7.74300       11.91700       -3.35000
O          8.77000       11.90300       -4.02500
N          7.43300       10.93500       -2.50300
H          6.61300       11.09200       -1.92200
C          8.17200        9.68100       -2.29800
H          8.57900        9.34400       -3.25200
C          9.33600        9.92000       -1.31800
H          9.93500        9.01100       -1.26100
H          9.97600       10.71400       -1.70600
C          8.88900       10.28100        0.06500
C          8.50300       11.51900        0.43400
H          8.51200       12.38300       -0.21600
N          7.86800       11.46700        1.65400
H          7.18000       12.18600        1.89600
C          7.90100       10.19800        2.18800
C          7.39500        9.64300        3.37300
H          6.88300       10.27200        4.08400
C          7.55300        8.26600        3.60600
H          7.16700        7.82300        4.51300
C          8.19400        7.46200        2.64500
H          8.29600        6.40000        2.81700
C          8.67900        8.02700        1.44900
H          9.13600        7.39700        0.70000
C          8.55600        9.41100        1.19300
C          7.25300        8.56800       -1.75700
O          7.53900        7.38800       -1.93800
N          6.13600        8.90100       -1.11400
H          5.56300        8.16700       -0.73800
H          5.92500        9.87500       -0.91900
