48
-1 1
H         12.36100        2.29000       11.61800
C         13.09100        1.67100       11.10100
H         14.07000        1.80500       11.55600
H         13.13600        1.94800       10.05000
C         12.69000        0.21500       11.22200
O         13.44000       -0.57100       11.78200
N         11.52700       -0.19200       10.72200
H         11.29300       -1.16400       10.86400
C         10.50900        0.61500       10.02900
H         10.47500        1.60600       10.48100
C         10.87500        0.75100        8.53000
H         11.92300        0.48800        8.38000
H         10.28200        0.04400        7.94800
C         10.67700        2.16400        7.95500
H         11.41400        2.83200        8.40800
H         10.87000        2.13900        6.88000
C          9.27000        2.69800        8.22300
O          9.08800        3.33300        9.28600
O          8.34800        2.34200        7.46000
C          9.11300       -0.01900       10.21100
O          8.99800       -1.23300       10.38100
N          8.05600        0.79600       10.18100
H          8.22100        1.78500        9.99800
C          6.65700        0.36600       10.29100
H          6.57600       -0.37000       11.09100
C          5.80300        1.58800       10.65300
H          5.79900        2.27300        9.80300
H          4.77600        1.25800       10.81300
C          6.24600        2.34800       11.86800
C          7.01900        3.45800       11.84800
H          7.40300        3.92200       10.94300
N          7.27400        3.87100       13.14000
H          7.86300        4.66200       13.35200
C          6.68100        3.03900       14.06500
C          6.65500        3.03100       15.46800
H          7.17400        3.79500       16.02500
C          5.95200        2.01200       16.13200
H          5.92400        1.98600       17.21300
C          5.28900        1.01800       15.38900
H          4.75400        0.23100       15.90100
C          5.32300        1.03600       13.98000
H          4.81900        0.26600       13.41500
C          6.01800        2.04800       13.28000
C          6.11200       -0.28600        9.00800
O          5.19500       -1.10200        9.06700
N          6.63400        0.05400        7.83700
H          6.27600       -0.37200        7.00300
H          7.33100        0.79400        7.78800
