38
-1 1
H          6.31300        5.99800        2.93000
C          6.82600        6.66700        2.24300
H          6.57300        6.41700        1.21400
H          7.90400        6.59000        2.37700
C          6.40000        8.08700        2.52200
O          5.60000        8.32600        3.41700
N          6.93500        9.01500        1.74000
H          7.56900        8.70600        1.00500
C          6.64200       10.45200        1.78700
H          6.78800       10.77100        2.82000
C          7.63300       11.26100        0.91900
H          7.27000       11.32400       -0.10300
H          7.62900       12.28000        1.30700
C          9.09700       10.77600        0.89300
H          9.72900       11.65400        0.73600
H          9.36500       10.36000        1.86700
C          9.39200        9.75400       -0.22400
O         10.46000        9.87800       -0.85800
O          8.54900        8.85100       -0.45200
C          5.18300       10.82000        1.42800
O          4.63100       11.67800        2.12000
N          4.50700       10.19200        0.43400
C          3.05700       10.18700        0.37500
H          2.71900       10.93300       -0.34500
H          2.60900       10.37100        1.35300
C          2.70800        8.78600       -0.10900
H          1.72000        8.75200       -0.56800
H          2.77400        8.08600        0.72500
C          3.81900        8.49300       -1.11900
H          3.48300        8.77900       -2.11700
H          4.08200        7.43400       -1.10800
C          5.01100        9.36100       -0.67300
H          5.80000        8.69300       -0.34400
C          5.53400       10.19900       -1.85400
O          4.83900       11.06100       -2.38400
N          6.73600        9.92100       -2.33600
H          7.35000        9.28400       -1.83300
H          7.09000       10.47000       -3.09900
