35
-1 1
H        -10.25400       12.53200       10.42700
C        -10.83800       12.63600        9.51500
H        -11.87500       12.85900        9.75600
H        -10.78300       11.71300        8.93700
C        -10.26900       13.76200        8.68900
O        -10.94900       14.74500        8.43000
N         -9.02800       13.59100        8.25000
H         -8.61700       12.67400        8.39300
C         -8.37600       14.44800        7.24400
H         -8.49400       15.49300        7.53400
C         -6.86200       14.13000        7.19000
H         -6.47100       14.47900        6.23300
H         -6.37500       14.72800        7.96200
C         -6.40300       12.66700        7.40200
H         -5.33700       12.60300        7.17000
H         -6.51000       12.42500        8.46200
C         -7.17500       11.62600        6.57800
O         -6.77300       11.35600        5.43100
O         -8.22900       11.15100        7.06900
C         -9.02700       14.31900        5.85300
O         -9.09400       15.28000        5.09000
N         -9.55000       13.13100        5.56500
H         -9.37200       12.39500        6.24200
C        -10.26400       12.71200        4.36200
H         -9.85800       13.25000        3.50600
C         -9.99200       11.21100        4.16300
H        -10.63000       10.82800        3.36600
H         -8.95100       11.07600        3.86500
O        -10.22200       10.47100        5.35400
H         -9.42600       10.57200        5.92400
C        -11.77200       13.01000        4.41600
O        -12.50300       12.73200        3.46900
N        -12.28000       13.59600        5.49600
H        -13.26300       13.79600        5.51700
H        -11.66800       13.85900        6.25400
