40
-1 1
H          4.60200        4.52100        3.81800
C          4.26800        5.55300        3.92500
H          3.90400        5.70900        4.93800
H          3.48400        5.77000        3.20300
C          5.44100        6.46800        3.67900
O          5.37700        7.34200        2.82200
N          6.51700        6.24300        4.42000
H          6.47900        5.45200        5.06500
C          7.81800        6.91800        4.27700
H          7.66200        7.98600        4.42700
C          8.78100        6.41800        5.37900
H          9.66300        7.06000        5.37800
H          8.29200        6.55000        6.34500
C          9.26100        4.95400        5.26800
H          9.96100        4.87800        4.43300
H          9.81000        4.69700        6.17600
C          8.10500        3.96400        5.07000
O          8.03200        3.36600        3.97400
O          7.20500        3.93800        5.94000
C          8.45100        6.76100        2.88100
O          9.10000        7.68800        2.39800
N          8.22800        5.62600        2.20800
H          7.81500        4.85000        2.72500
C          8.62600        5.37600        0.81100
H          9.66300        5.69500        0.70600
C          8.57500        3.85300        0.54800
H          9.10600        3.36000        1.36200
C          7.14400        3.29800        0.51600
H          6.58200        3.72900       -0.31200
H          7.17700        2.21500        0.40400
H          6.64100        3.52500        1.45700
C          9.28800        3.43700       -0.74500
H         10.29300        3.85800       -0.76000
H          9.36000        2.35100       -0.78600
H          8.73800        3.78700       -1.61800
C          7.81200        6.19300       -0.21400
O          8.14600        6.24400       -1.39400
N          6.73900        6.86300        0.18800
H          6.23800        7.41600       -0.48400
H          6.48300        6.87200        1.16700
