35
-1 1
H         11.62300        9.26200        3.68400
C         11.84900       10.31100        3.49800
H         12.92300       10.43300        3.38100
H         11.48500       10.92400        4.32000
C         11.16500       10.73600        2.22300
O         10.38800       11.68200        2.22200
N         11.46500       10.03000        1.14100
H         12.13000        9.26300        1.24800
C         10.85100       10.20400       -0.18500
H         10.86700       11.26700       -0.42800
C         11.70400        9.46300       -1.24200
H         11.37400        9.78500       -2.23000
H         12.73900        9.79000       -1.13200
C         11.67900        7.91700       -1.21800
H         10.72200        7.58300       -1.62500
H         12.45900        7.54600       -1.88600
C         11.87700        7.32000        0.18300
O         12.90900        7.63500        0.81400
O         10.92300        6.68200        0.68600
C          9.37500        9.76400       -0.24500
O          8.57100       10.38900       -0.93600
N          9.01500        8.69800        0.47500
H          9.76100        8.17200        0.92100
C          7.65700        8.16500        0.60100
H          6.96600        9.00400        0.68600
C          7.31600        7.38100       -0.68000
H          6.24900        7.15700       -0.68100
H          7.53600        8.00400       -1.54800
S          8.23800        5.81600       -0.81000
H          9.44500        6.28100       -0.42500
C          7.47700        7.29700        1.86300
O          6.37500        7.20200        2.39600
N          8.53200        6.68100        2.38900
H          8.40100        6.11800        3.21000
H          9.42300        6.69000        1.89900
