33
0 1
H          9.07200       12.38000       -7.99700
C          9.44100       13.28800       -7.52300
H         10.46200       13.13900       -7.17600
H          8.80300       13.54000       -6.67600
C          9.40800       14.42400       -8.51700
O          8.72200       15.41400       -8.29800
N         10.13700       14.27600       -9.62200
H         10.65500       13.41800       -9.72700
C         10.25300       15.27500      -10.69600
H         10.43500       16.25200      -10.24800
H         11.10600       15.02600      -11.32700
C          9.01400       15.39600      -11.59400
O          9.13800       15.33100      -12.81500
N          7.82200       15.52800      -11.00600
H          7.81600       15.59900       -9.99300
C          6.52700       15.58200      -11.70200
H          6.53700       14.83600      -12.49900
C          5.41500       15.17600      -10.72200
H          5.71300       14.26200      -10.20600
H          5.28000       15.95700       -9.97200
C          4.10300       14.90300      -11.41100
N          3.81100       13.75600      -12.15000
C          2.57200       13.93400      -12.62900
H          2.05000       13.22000      -13.25200
N          2.08100       15.12300      -12.23800
H          1.17800       15.49700      -12.48900
C          3.03600       15.75000      -11.47000
H          2.99000       16.73800      -11.03100
C          6.27300       16.94300      -12.38200
O          5.39600       17.71300      -12.00500
N          7.07700       17.29000      -13.37700
H          6.93800       18.18200      -13.82000
H          7.83400       16.67200      -13.63700
