27
0 1
H          0.21900       -4.93200       -4.96900
C          0.84200       -5.80500       -5.15500
H          0.21100       -6.66700       -5.36400
H          1.46500       -6.00900       -4.28700
C          1.72400       -5.54300       -6.35400
O          1.64700       -6.25800       -7.34400
N          2.56300       -4.51500       -6.26500
H          2.57800       -3.96600       -5.41800
C          3.48700       -4.11700       -7.32900
H          4.13900       -4.95600       -7.57400
H          2.91700       -3.85600       -8.22100
C          4.35400       -2.91900       -6.93300
O          4.23800       -2.39600       -5.82500
N          5.23400       -2.48300       -7.83600
H          5.26700       -2.92800       -8.74400
C          6.09100       -1.30200       -7.66000
H          5.50700       -0.51400       -7.18400
C          7.27500       -1.64600       -6.74600
H          6.92500       -2.20600       -5.87800
H          7.99100       -2.26000       -7.29400
O          7.90500       -0.46100       -6.29800
H          7.53000       -0.22800       -5.44200
C          6.58000       -0.77700       -9.01900
O          6.38400       -1.42000      -10.04500
N          7.21000        0.38800       -9.06400
H          7.53200        0.72500       -9.95500
H          7.43500        0.86100       -8.20200
