35
0 1
H          5.87400        1.78500       -1.38500
C          5.31200        2.04100       -2.28100
H          4.31200        1.61600       -2.22700
H          5.82800        1.64700       -3.15700
C          5.21400        3.54300       -2.40100
O          5.66600        4.11200       -3.38900
N          4.61000        4.18400       -1.40000
H          4.24500        3.63100       -0.64100
C          4.41300        5.63900       -1.33400
H          4.05100        5.90800       -0.34200
H          5.36700        6.14000       -1.49700
C          3.40600        6.15800       -2.36400
O          2.26900        6.45800       -2.01600
N          3.83100        6.23300       -3.62800
H          4.77200        5.90200       -3.80200
C          3.02000        6.63000       -4.79400
H          1.96800        6.57300       -4.51100
C          3.30500        8.09800       -5.20000
H          2.64200        8.33400       -6.03300
C          2.94400        9.06500       -4.05700
H          1.95000        8.82800       -3.67400
H          3.66500        8.98400       -3.24400
H          2.93000       10.09100       -4.42200
C          4.76000        8.29600       -5.68900
H          5.45100        8.12800       -4.86200
H          4.98000        7.56500       -6.46700
C          5.03000        9.68500       -6.28000
H          6.04000        9.71100       -6.69100
H          4.31800        9.89500       -7.07800
H          4.95100       10.45000       -5.50700
C          3.17400        5.66900       -5.98900
O          2.56600        5.86800       -7.03200
N          3.98000        4.61700       -5.88600
H          4.49300        4.44200       -5.03300
H          4.06600        4.00800       -6.68100
