30
0 1
H          8.85600       17.05300       -8.66200
C          8.16900       17.12800       -7.82100
H          7.15800       16.88700       -8.14300
H          8.19200       18.14100       -7.42000
C          8.59200       16.16300       -6.73900
O          8.87300       16.57600       -5.61900
N          8.62800       14.87200       -7.06700
H          8.33800       14.60600       -7.99400
C          8.95700       13.81100       -6.11000
H          8.91000       12.84600       -6.61200
H          9.97500       13.95500       -5.75500
C          7.95800       13.78100       -4.93900
O          6.77200       13.57900       -5.19300
N          8.38900       13.98100       -3.67700
C          9.76500       14.21000       -3.25100
H         10.23500       15.00700       -3.82900
H         10.33300       13.28400       -3.34900
C          9.69000       14.61600       -1.77900
H          9.58900       15.70000       -1.70100
H         10.55900       14.26900       -1.21900
C          8.40300       13.94200       -1.30600
H          7.99200       14.42800       -0.42000
H          8.59700       12.88800       -1.10200
C          7.48400       14.06500       -2.52600
H          6.78700       13.22700       -2.53900
C          6.65500       15.36600       -2.47100
O          5.78600       15.50300       -1.61900
N          6.90300       16.35300       -3.32600
H          6.34200       17.18500       -3.26400
H          7.62400       16.26100       -4.02800
