36
0 1
H         -0.19300        3.91900        4.74500
C         -1.21800        3.91700        5.10900
H         -1.64800        4.91100        4.98900
H         -1.24100        3.63800        6.16100
C         -2.03500        2.93100        4.30900
O         -2.99800        3.31400        3.65800
N         -1.64000        1.65800        4.34400
H         -0.82800        1.43700        4.89700
C         -2.31400        0.54900        3.65100
H         -1.96500       -0.39800        4.06300
H         -3.38800        0.62200        3.82800
C         -2.08900        0.52300        2.13400
O         -1.58900       -0.46700        1.60700
N         -2.40500        1.61700        1.43900
H         -2.80400        2.38800        1.96400
C         -2.29800        1.78200       -0.01900
H         -2.64500        0.85800       -0.48200
C         -3.25100        2.90600       -0.46300
H         -2.90100        3.85300       -0.04900
H         -3.21200        2.99200       -1.55000
C         -4.69900        2.69100       -0.05600
C         -5.22600        3.34200        1.07600
H         -4.60500        4.01000        1.65700
C         -6.56000        3.12100        1.46100
H         -6.95800        3.62100        2.33300
C         -7.37400        2.25200        0.71400
H         -8.40000        2.08400        1.01000
C         -6.85200        1.60200       -0.41900
H         -7.47800        0.93500       -0.99400
C         -5.51700        1.82100       -0.80200
H         -5.11900        1.31900       -1.67200
C         -0.84900        1.99300       -0.51700
O         -0.55900        2.88600       -1.30400
N          0.10200        1.19700       -0.04900
H          1.04500        1.33400       -0.37100
H         -0.14900        0.44200        0.57500
