36
0 1
H          3.84900        6.26500       -7.03900
C          3.05500        5.60500       -6.69100
H          3.12900        4.65000       -7.20500
H          2.08800        6.06300       -6.88900
C          3.21500        5.39400       -5.20500
O          4.09400        5.98300       -4.58900
N          2.38500        4.52500       -4.62600
H          1.69000        4.08200       -5.20600
C          2.34500        4.25800       -3.17600
H          2.16900        5.19900       -2.65400
H          1.50900        3.59300       -2.96300
C          3.60800        3.62600       -2.56800
O          3.67100        3.44700       -1.35800
N          4.61000        3.29800       -3.38700
H          4.49700        3.51500       -4.36400
C          5.95500        2.89600       -2.95800
H          5.87600        2.28600       -2.05700
C          6.57600        2.03300       -4.07100
H          7.62000        1.82800       -3.82800
H          6.06000        1.07300       -4.08400
C          6.50200        2.64400       -5.46200
C          7.39600        3.66400       -5.84000
H          8.16100        3.99700       -5.15100
C          7.29600        4.25600       -7.11100
H          7.98300        5.04100       -7.39600
C          6.30700        3.82500       -8.01400
H          6.23800        4.27700       -8.99400
C          5.41900        2.80000       -7.64500
H          4.66900        2.45900       -8.34400
C          5.51400        2.21300       -6.37000
H          4.83100        1.42300       -6.09100
C          6.86600        4.09000       -2.59900
O          7.97100        3.89900       -2.10800
N          6.45800        5.33100       -2.84700
H          7.06700        6.09100       -2.59800
H          5.56600        5.49900       -3.29300
