32
0 1
H          0.96300       14.68000        8.28000
C          1.43700       14.38700        7.34400
H          1.83000       13.37600        7.43800
H          2.24300       15.08100        7.11300
C          0.40700       14.42600        6.24100
O         -0.75000       14.73900        6.48700
N          0.82200       14.08900        5.02000
H          1.78900       13.82800        4.91300
C         -0.01600       14.10500        3.81000
H         -0.56700       15.04600        3.77900
H          0.62600       14.06200        2.93000
C         -1.04000       12.96500        3.70900
O         -1.13500       12.33800        2.65800
N         -1.77000       12.68000        4.79500
H         -1.62500       13.30000        5.58600
C         -2.76200       11.59600        4.98700
H         -3.11800       11.68700        6.01300
C         -4.00700       11.79100        4.08800
H         -3.71300       11.71500        3.04200
C         -5.08700       10.73200        4.35200
H         -4.71500        9.74000        4.09800
H         -5.37800       10.74600        5.40300
H         -5.96300       10.93200        3.73400
C         -4.65300       13.16700        4.31100
H         -3.95900       13.96000        4.03500
H         -5.54200       13.26500        3.68700
H         -4.93500       13.28400        5.35800
C         -2.19900       10.16700        4.89500
O         -2.46300        9.34800        5.76500
N         -1.39800        9.83300        3.89500
H         -1.18700       10.51800        3.18000
H         -1.03700        8.89600        3.85800
