33
0 1
H         -9.90600        9.55100       -7.91000
C         -8.88900        9.82700       -7.63600
H         -8.69900       10.85700       -7.93700
H         -8.17800        9.16800       -8.12900
C         -8.72500        9.71700       -6.13900
O         -8.41400       10.69800       -5.47900
N         -8.91500        8.51200       -5.60100
H         -9.15200        7.75700       -6.22400
C         -8.83700        8.20900       -4.16300
H         -9.41000        8.95900       -3.61600
H         -9.29200        7.23500       -3.97800
C         -7.41700        8.19100       -3.58100
O         -7.05100        7.23600       -2.89900
N         -6.60200        9.20900       -3.86900
H         -6.99900        9.97200       -4.40900
C         -5.19200        9.32400       -3.46500
H         -4.74300        8.33600       -3.57000
C         -4.47300       10.25900       -4.45600
H         -4.72400        9.94400       -5.47000
H         -4.82500       11.28300       -4.32100
C         -2.94500       10.22700       -4.32200
H         -2.65500       10.69000       -3.38000
H         -2.61400        9.18800       -4.31000
S         -2.08000       11.08000       -5.66800
C         -0.37500       10.92200       -5.07600
H         -0.11600        9.86800       -4.98100
H          0.30000       11.39800       -5.78700
H         -0.27800       11.41000       -4.10600
C         -5.02600        9.72000       -1.97900
O         -4.40600       10.71800       -1.63300
N         -5.61100        8.96000       -1.06500
H         -6.13400        8.14600       -1.36000
H         -5.52400        9.21800       -0.09700
