23
0 1
H          1.57800        1.80200        3.55700
C          1.16400        1.47100        4.50800
H          1.32700        0.40300        4.63400
H          0.09500        1.68100        4.53000
C          1.83400        2.22000        5.63500
O          1.17100        2.91300        6.39500
N          3.15200        2.06700        5.75800
H          3.61400        1.46200        5.09800
C          3.99100        2.74600        6.75900
H          5.03700        2.65700        6.46700
H          3.73200        3.80500        6.77100
C          3.85000        2.21600        8.19400
O          4.85700        1.94900        8.84100
N          2.62100        2.03900        8.68700
H          1.84900        2.32600        8.09300
C          2.29000        1.45100        9.99500
H          1.23000        1.19600       10.01000
H          2.86000        0.52900       10.11500
C          2.58000        2.33400       11.21900
O          1.80600        2.34500       12.16600
N          3.65100        3.11500       11.21900
H          3.82200        3.69600       12.02200
H          4.30900        3.04900       10.45500
