33
0 1
H          9.31900        8.78000       -2.56200
C          8.94800        7.97700       -3.19700
H          9.15000        7.01800       -2.72200
H          9.44100        8.01100       -4.16700
C          7.45800        8.13300       -3.38100
O          6.69400        7.27700       -2.95100
N          7.04400        9.24500       -3.99100
H          7.74900        9.90100       -4.28800
C          5.64000        9.57200       -4.30100
H          5.61600       10.41700       -4.98900
H          5.18800        8.71600       -4.80300
C          4.74500        9.92200       -3.10000
O          3.66700       10.47500       -3.28700
N          5.19000        9.62900       -1.87900
H          6.09300        9.18000       -1.80700
C          4.48900        9.84600       -0.61200
H          3.97900       10.80900       -0.65000
C          3.41800        8.74600       -0.41600
H          2.99900        8.82800        0.58700
H          2.60400        8.94600       -1.11500
C          3.87400        7.29200       -0.64900
H          3.02600        6.62900       -0.47900
H          4.17800        7.16400       -1.68800
C          5.00200        6.85400        0.27600
O          4.88300        6.87900        1.48900
N          6.13800        6.46000       -0.25100
H          6.28800        6.52400       -1.25300
H          6.87200        6.23800        0.39500
C          5.51200        9.91600        0.54000
O          6.71000        9.73400        0.33500
N          5.07400       10.20200        1.75800
H          4.08900       10.31600        1.93100
H          5.74200       10.20600        2.51100
