32
0 1
H          3.32500       -2.47100       -5.66700
C          4.02100       -3.28900       -5.48800
H          5.04200       -2.91100       -5.52900
H          3.89000       -4.06200       -6.24200
C          3.77000       -3.87300       -4.11900
O          4.64900       -3.85100       -3.26800
N          2.55800       -4.38000       -3.89500
H          1.89100       -4.34000       -4.64800
C          2.13100       -5.02400       -2.64200
H          1.21200       -5.58200       -2.82100
H          2.90100       -5.73300       -2.33400
C          1.88600       -4.06600       -1.46600
O          0.86400       -4.17900       -0.79600
N          2.77600       -3.09400       -1.24600
H          3.60200       -3.09500       -1.83800
C          2.69800       -2.05900       -0.19500
H          2.30700       -2.54900        0.69700
C          4.12400       -1.58200        0.17400
H          4.70000       -2.48000        0.40200
C          4.87300       -0.85800       -0.95500
H          5.89700       -0.65700       -0.64000
H          4.90500       -1.48000       -1.84800
H          4.39100        0.08900       -1.19400
C          4.15400       -0.72400        1.44500
H          3.67800        0.24100        1.27200
H          3.63800       -1.24100        2.25300
H          5.18800       -0.55200        1.74300
C          1.67500       -0.95000       -0.52900
O          1.96400        0.23800       -0.57800
N          0.43600       -1.32500       -0.80700
H          0.19700       -2.30700       -0.77100
H         -0.24300       -0.61700       -1.03100
