27
0 1
H         -3.84000      -15.82600       -5.80600
C         -4.01900      -14.93000       -5.21500
H         -3.73900      -15.10700       -4.17800
H         -5.07300      -14.66100       -5.26800
C         -3.19500      -13.79200       -5.76900
O         -3.74300      -12.77900       -6.18200
N         -1.87600      -13.95800       -5.77800
H         -1.48700      -14.82000       -5.42300
C         -0.92800      -12.96100       -6.27800
H         -1.15200      -12.74300       -7.32200
H         -1.03900      -12.04000       -5.70600
C          0.52500      -13.43200       -6.17400
O          0.79600      -14.53400       -5.70100
N          1.46500      -12.59500       -6.61700
H          1.18600      -11.69100       -6.97300
C          2.90500      -12.86300       -6.57800
H          3.13500      -13.44800       -5.68600
C          3.27500      -13.69900       -7.81500
H          2.69800      -14.62600       -7.79700
H          3.02200      -13.14900       -8.72400
S          5.04200      -14.12100       -7.83300
H          5.49600      -12.94200       -8.27800
C          3.68700      -11.54000       -6.49600
O          3.24400      -10.51800       -7.00700
N          4.85400      -11.52800       -5.86400
H          5.22500      -12.37700       -5.46900
H          5.35600      -10.65700       -5.80900
