40
0 1
H          2.21200       14.97200       -0.90400
C          1.89900       14.75500       -1.92400
H          2.40500       15.43300       -2.61000
H          0.82100       14.87800       -2.00800
C          2.27000       13.33100       -2.26100
O          2.82000       12.62600       -1.42100
N          1.95600       12.90700       -3.48600
H          1.48300       13.55300       -4.09700
C          2.23100       11.56100       -4.00800
H          2.02700       11.54000       -5.07800
H          3.28600       11.32500       -3.85700
C          1.38900       10.47000       -3.34100
O          0.43200        9.97600       -3.92800
N          1.74700       10.11900       -2.10800
H          2.54100       10.60900       -1.71500
C          1.08500        9.11800       -1.26000
H          0.03200        9.05900       -1.53700
C          1.72500        7.74500       -1.51400
H          1.20700        6.99400       -0.91400
H          1.57200        7.47800       -2.56000
C          3.19400        7.67100       -1.22000
C          3.73500        7.35200       -0.02300
H          3.16000        7.08600        0.85800
N          5.11100        7.45000       -0.09500
H          5.72200        7.25900        0.68500
C          5.52600        7.85600       -1.34500
C          6.78900        8.11400       -1.89900
H          7.68100        8.00000       -1.30200
C          6.87600        8.52100       -3.24200
H          7.84100        8.72100       -3.68700
C          5.70600        8.65800       -4.01100
H          5.77900        8.95900       -5.04700
C          4.44300        8.39700       -3.44300
H          3.55100        8.48800       -4.04600
C          4.31900        7.99600       -2.09400
C          1.13000        9.48400        0.23900
O          0.70200        8.71000        1.08700
N          1.64600       10.65000        0.61400
H          1.67200       10.86300        1.59700
H          2.00500       11.30000       -0.07100
