23
0 1
H          6.44400        2.10700        1.54600
C          5.71300        2.31800        2.32300
H          6.10300        2.01900        3.29400
H          4.79400        1.76900        2.11700
C          5.40600        3.79700        2.33900
O          4.26900        4.19300        2.12500
N          6.42800        4.61900        2.57300
H          7.33400        4.20500        2.72400
C          6.32600        6.08400        2.67000
H          5.48300        6.33500        3.31400
H          7.23200        6.47600        3.13200
C          6.12200        6.81000        1.33100
O          6.85800        7.74400        1.03100
N          5.17500        6.35600        0.50500
H          4.61500        5.57900        0.84100
C          4.82900        6.92200       -0.80800
H          3.86200        6.52800       -1.12000
H          4.73700        8.00400       -0.70800
C          5.84100        6.64300       -1.92900
O          5.45700        6.27100       -3.03000
N          7.13600        6.76600       -1.67600
H          7.79100        6.57600       -2.41400
H          7.42900        7.11100       -0.77200
