30
0 1
H          9.33000        8.75900       -5.39300
C          9.53900        8.06300       -6.20400
H         10.53400        7.64000       -6.07100
H          9.47900        8.58500       -7.15700
C          8.51800        6.95200       -6.17200
O          7.65900        6.92700       -5.29900
N          8.62100        6.01400       -7.11400
H          9.38200        6.09600       -7.76900
C          7.73800        4.84400       -7.23800
H          6.70200        5.17100       -7.14100
H          7.86600        4.40100       -8.22600
C          7.99100        3.75500       -6.18800
O          8.12300        2.58500       -6.53800
N          8.09400        4.13000       -4.91000
H          7.93800        5.11600       -4.72400
C          8.67200        3.32100       -3.81800
H          8.70300        3.96700       -2.94200
C          7.78100        2.12500       -3.40800
H          8.15200        1.74500       -2.45500
C          6.31100        2.49700       -3.21400
H          5.77200        1.63400       -2.82100
H          6.22900        3.31900       -2.50400
H          5.86200        2.78900       -4.16300
O          7.83600        1.06900       -4.33500
H          7.80500        1.46600       -5.22600
C         10.14900        2.97500       -4.09700
O         10.91100        3.84300       -4.50800
N         10.61100        1.75500       -3.85200
H         11.57900        1.56400       -4.04900
H          9.96500        1.02100       -3.60200
