33
0 1
H          0.35400        9.92600        6.43300
C          0.96200       10.81200        6.25700
H          1.08000       11.36900        7.18400
H          0.47600       11.44000        5.51200
C          2.32000       10.39300        5.74500
O          2.71700       10.79000        4.65600
N          3.03700        9.59500        6.53200
H          2.60500        9.27100        7.38200
C          4.41500        9.16300        6.25700
H          4.97000       10.00100        5.83400
H          4.89300        8.88300        7.19600
C          4.54000        7.98100        5.28900
O          5.19100        6.99600        5.62700
N          3.91500        8.04600        4.10900
H          3.40200        8.89500        3.89200
C          3.88700        6.94300        3.13500
H          4.76500        6.32100        3.31700
C          2.65100        6.04700        3.37200
H          2.81700        5.10400        2.85100
H          2.58200        5.81700        4.43700
C          1.29200        6.60300        2.89800
H          1.30000        6.72000        1.81500
H          0.51700        5.87700        3.14200
C          0.91900        7.93000        3.55000
O          0.43600        7.98800        4.66700
N          1.17900        9.04200        2.89900
H          1.73100        9.00500        2.05000
H          1.08800        9.90400        3.41200
C          3.98700        7.42400        1.67700
O          3.42000        8.44200        1.29300
N          4.66900        6.67400        0.82200
H          4.73000        6.98100       -0.13500
H          5.12800        5.83500        1.13500
