23
0 1
H          5.11900        9.02100       -3.72000
C          4.74000        8.03800       -3.99200
H          5.29400        7.66000       -4.85100
H          3.68300        8.10300       -4.24500
C          4.92100        7.08500       -2.83500
O          5.61300        6.08400       -2.96200
N          4.32600        7.41400       -1.68700
H          3.78700        8.26500       -1.66800
C          4.27200        6.54500       -0.49800
H          3.64200        7.02000        0.25400
H          3.80100        5.60200       -0.78000
C          5.61100        6.20000        0.17500
O          5.61100        5.45500        1.14800
N          6.74000        6.71500       -0.32400
H          6.65900        7.27600       -1.15700
C          8.08700        6.30300        0.09000
H          8.77900        7.12500       -0.08700
H          8.09000        6.08000        1.15800
C          8.62700        5.06800       -0.64900
O          9.70700        4.58900       -0.33400
N          7.92400        4.53900       -1.64500
H          8.29400        3.72900       -2.11100
H          7.04700        4.95400       -1.93200
