37
0 1
H         15.77800        8.13200        3.89000
C         15.52500        8.95100        4.56200
H         15.18600        9.80700        3.98100
H         16.40000        9.22100        5.15000
C         14.41900        8.50000        5.48700
O         13.95800        7.37100        5.39000
N         13.98100        9.39100        6.37600
H         14.40800       10.30300        6.37200
C         12.93400        9.13500        7.37800
H         13.14200        8.18300        7.86800
H         12.96200        9.91900        8.13400
C         11.51000        9.06900        6.81100
O         10.63700        9.80300        7.26700
N         11.27500        8.23200        5.79800
H         12.04700        7.65200        5.48400
C          9.97600        8.06100        5.13900
H          9.53800        9.05000        4.99100
C         10.19800        7.44900        3.74600
H         10.98400        8.01100        3.23800
H         10.55500        6.42300        3.85400
C          8.96500        7.46600        2.86100
C          8.13600        6.33000        2.77200
H          8.37900        5.44200        3.34200
C          6.98800        6.35100        1.95700
H          6.35600        5.47900        1.89800
C          6.66700        7.51500        1.22500
O          5.56100        7.54500        0.43700
H          5.08000        6.71800        0.46700
C          7.49600        8.65200        1.31300
H          7.24000        9.53500        0.74800
C          8.64300        8.62700        2.13000
H          9.27700        9.50000        2.19500
C          8.99500        7.25600        6.01600
O          8.79500        6.05700        5.84800
N          8.39500        7.89800        7.00800
H          7.76600        7.38400        7.60100
H          8.64500        8.85800        7.19700
