27
0 1
H         -3.60500       17.52900       -0.42000
C         -2.89600       18.31000       -0.68900
H         -3.00100       19.14900       -0.00200
H         -3.08400       18.64800       -1.70600
C         -1.49000       17.76800       -0.59200
O         -0.68900       18.27200        0.18900
N         -1.19400       16.73100       -1.37800
H         -1.92400       16.36700       -1.96900
C          0.11400       16.06500       -1.42300
H          0.12600       15.34900       -2.24500
H          0.89300       16.80600       -1.60400
C          0.44300       15.31100       -0.13100
O          0.24900       14.10300       -0.05000
N          0.91600       16.04000        0.87900
H          1.00700       17.03500        0.72100
C          1.23700       15.53500        2.21700
H          0.66300       14.62300        2.39000
C          2.72900       15.16800        2.26100
H          2.95800       14.69200        3.21600
H          2.95000       14.46300        1.45800
S          3.76100       16.65300        2.06700
H          3.52900       17.15300        3.28900
C          0.83700       16.51200        3.34500
O          1.20700       16.31800        4.49600
N          0.10500       17.58300        3.05500
H         -0.19700       17.76100        2.10700
H         -0.13300       18.21200        3.80400
