37
0 1
H          5.32400       -0.91500       -5.43800
C          5.47900       -0.09600       -6.13800
H          4.54300        0.12800       -6.64900
H          6.23700       -0.37000       -6.86900
C          5.92900        1.13000       -5.38100
O          5.25400        2.15200       -5.40000
N          7.07100        1.03200       -4.70200
H          7.55100        0.14700       -4.69400
C          7.59800        2.11900       -3.87200
H          8.56700        1.83200       -3.46300
H          7.73200        3.00900       -4.48700
C          6.66300        2.44200       -2.70300
O          6.41900        1.59000       -1.85500
N          6.13800        3.66900       -2.66600
H          6.33700        4.29700       -3.42900
C          5.13000        4.10600       -1.69000
H          5.34800        3.63500       -0.73000
C          5.25000        5.62700       -1.50400
H          4.51200        5.95600       -0.77100
H          6.23200        5.84700       -1.08300
C          5.07000        6.43600       -2.77800
C          3.77500        6.73700       -3.24400
H          2.90900        6.40800       -2.68200
C          3.60300        7.46100       -4.43900
H          2.60900        7.68600       -4.79400
C          4.73200        7.89100       -5.17000
O          4.57800        8.58900       -6.32400
H          3.65500        8.72400       -6.54000
C          6.02800        7.59600       -4.69900
H          6.88300        7.93800       -5.26300
C          6.19700        6.87100       -3.50400
H          7.19300        6.65700       -3.14100
C          3.68600        3.69300       -2.05600
O          2.75400        3.97900       -1.31400
N          3.44800        3.04900       -3.19200
H          2.49900        2.79400       -3.40500
H          4.20300        2.82400       -3.82700
