35
0 1
H          4.53500        8.84800        3.11000
C          4.46900        9.72800        2.47400
H          4.94600       10.57200        2.97100
H          3.42600        9.96700        2.27300
C          5.18500        9.46000        1.17100
O          6.13200       10.15800        0.83400
N          4.72000        8.45600        0.42800
H          3.92500        7.94600        0.77700
C          5.29300        8.02600       -0.85700
H          6.37600        7.95000       -0.75300
H          4.90700        7.03800       -1.10900
C          4.99900        8.96900       -2.03100
O          4.43600        8.53700       -3.03400
N          5.34000       10.25400       -1.90100
H          5.80600       10.52000       -1.03900
C          5.10300       11.30600       -2.89900
H          4.10800       11.14200       -3.31600
C          5.09200       12.67200       -2.17300
H          4.70700       12.51800       -1.16300
H          6.11100       13.04900       -2.07400
C          4.19700       13.74300       -2.82900
H          3.17600       13.36100       -2.87600
C          4.19300       15.00200       -1.96100
H          5.19900       15.41800       -1.90500
H          3.52000       15.74500       -2.38900
H          3.84800       14.75800       -0.95600
C          4.62300       14.14900       -4.24000
H          5.66400       14.47600       -4.23400
H          4.51800       13.30600       -4.92100
H          3.99200       14.96000       -4.60100
C          6.10700       11.20700       -4.07100
O          6.97400       12.05000       -4.26600
N          6.03000       10.14300       -4.85600
H          5.35000        9.42400       -4.64600
H          6.68700       10.05400       -5.61200
