33
0 1
H          5.85600        5.62400      -10.64700
C          6.34500        6.34000       -9.99100
H          5.63200        6.70600       -9.25300
H          6.73000        7.17600      -10.57300
C          7.49000        5.66300       -9.27500
O          7.49800        5.60400       -8.05000
N          8.45200        5.15400      -10.04200
H          8.38700        5.29700      -11.03700
C          9.68700        4.55600       -9.52500
H          9.49500        4.11400       -8.54600
H         10.01300        3.76100      -10.19400
C         10.82800        5.57200       -9.40000
O         10.99900        6.42900      -10.26200
N         11.60900        5.46300       -8.32400
H         11.32900        4.79100       -7.62200
C         12.71700        6.36900       -7.97800
H         13.19800        6.69500       -8.90200
C         12.16800        7.62600       -7.26100
H         12.98600        8.34100       -7.16600
H         11.41100        8.08800       -7.89700
C         11.56700        7.41100       -5.85400
H         12.33400        7.04000       -5.17500
H         11.22500        8.37300       -5.47000
C         10.39500        6.43700       -5.86200
O         10.56200        5.23800       -5.69000
N          9.20700        6.89400       -6.18500
H          9.07000        7.86400       -6.39200
H          8.49300        6.21100       -6.42000
C         13.80600        5.68700       -7.12600
O         14.97200        6.04700       -7.20900
N         13.47200        4.69100       -6.31300
H         14.20200        4.25500       -5.77400
H         12.50100        4.45700       -6.16400
