37
0 1
H          1.69200       11.82500       -1.87500
C          2.60100       12.03600       -2.43900
H          3.45900       11.96300       -1.77500
H          2.54100       13.03600       -2.86500
C          2.72900       11.02500       -3.55300
O          1.82400       10.23300       -3.77400
N          3.87300       11.02700       -4.24000
H          4.56700       11.71400       -3.99500
C          4.13900       10.16200       -5.40500
H          3.36700       10.34000       -6.15500
H          5.10000       10.43900       -5.83800
C          4.17200        8.64900       -5.13100
O          4.29900        7.86800       -6.06600
N          4.04900        8.23200       -3.86900
H          3.91400        8.93700       -3.16200
C          3.82800        6.84200       -3.45200
H          4.42600        6.18000       -4.08000
C          4.30900        6.69400       -1.99700
H          3.96900        5.73800       -1.59600
H          5.39900        6.66100       -2.00700
C          3.86700        7.81300       -1.06400
C          2.53000        7.88700       -0.62900
H          1.81900        7.12600       -0.92400
C          2.11200        8.95600        0.18800
H          1.08700        9.02400        0.52000
C          3.03500        9.94400        0.58600
O          2.62700       10.97000        1.37700
H          3.36200       11.43900        1.77200
C          4.37800        9.86700        0.15800
H          5.08800       10.61900        0.46600
C          4.78900        8.80400       -0.67000
H          5.81800        8.74400       -0.99900
C          2.36100        6.38200       -3.60500
O          2.06000        5.20900       -3.42100
N          1.41900        7.26600       -3.91400
H          1.64800        8.24500       -4.02300
H          0.47300        6.93900       -4.01700
