36
0 1
H         -8.50600        2.58500        1.50500
C         -7.58900        2.96800        1.06100
H         -7.62100        4.05600        1.04000
H         -7.47700        2.58600        0.04800
C         -6.40800        2.53000        1.89400
O         -5.68600        3.36000        2.43000
N         -6.20600        1.21700        1.99700
H         -6.83500        0.61000        1.49800
C         -5.15900        0.58400        2.81600
H         -5.16000        1.05100        3.80200
H         -5.39500       -0.47200        2.94200
C         -3.73500        0.69000        2.25300
O         -3.01100       -0.30100        2.24900
N         -3.33600        1.86100        1.75100
H         -3.98700        2.63500        1.82600
C         -2.06500        2.11600        1.05500
H         -1.88800        1.27700        0.38200
C         -2.21600        3.37900        0.18800
H         -2.28300        4.24700        0.84700
H         -1.31700        3.49900       -0.41800
C         -3.41300        3.37200       -0.74800
C         -3.46000        2.46800       -1.82700
H         -2.64300        1.78000       -1.99100
C         -4.56400        2.46100       -2.69800
H         -4.59400        1.76800       -3.52700
C         -5.62300        3.36400       -2.49800
H         -6.46700        3.36700       -3.17400
C         -5.57900        4.27100       -1.42500
H         -6.38800        4.97100       -1.27300
C         -4.47900        4.27100       -0.54800
H         -4.45400        4.96600        0.28000
C         -0.82500        2.18000        1.98000
O          0.07700        2.98700        1.78700
N         -0.75300        1.35600        3.01500
H          0.05200        1.40800        3.61600
H         -1.46700        0.65100        3.13500
