27
0 1
H         10.73000        7.38600        4.57700
C         10.30500        8.37700        4.41700
H         11.02000        8.99600        3.87800
H         10.06900        8.83000        5.37800
C          9.04300        8.24300        3.59900
O          8.66800        7.13600        3.22400
N          8.39300        9.37300        3.31500
H          8.79100       10.24200        3.63100
C          7.17200        9.42800        2.50300
H          6.37700        8.87700        3.00600
H          6.85500       10.46400        2.38600
C          7.39800        8.83700        1.10900
O          8.12500        9.40600        0.30000
N          6.81300        7.66700        0.85600
H          6.22000        7.25400        1.56300
C          7.12800        6.80800       -0.28900
H          7.21400        7.42100       -1.18700
C          8.48000        6.11800       -0.04000
H          8.72500        5.48300       -0.89200
H          9.26200        6.87300        0.05700
O          8.45200        5.32700        1.13100
H          8.50100        5.91800        1.90700
C          6.01500        5.77400       -0.51800
O          5.06500        5.67600        0.25300
N          6.08300        5.00400       -1.59700
H          5.35200        4.32500       -1.73600
H          6.86300        5.07500       -2.22700
