30
0 1
H          7.89700       10.23000        1.88300
C          7.79400        9.18400        1.60200
H          7.65000        8.57400        2.49400
H          8.68700        8.85400        1.07400
C          6.59700        9.02200        0.69700
O          6.73300        8.57500       -0.43700
N          5.41200        9.36100        1.20300
H          5.38600        9.63200        2.17400
C          4.12700        9.17600        0.51400
H          3.36200        9.77400        1.01000
H          4.21700        9.51400       -0.51900
C          3.67400        7.71300        0.51200
O          2.61200        7.40600        1.04100
N          4.51600        6.81900       -0.02200
H          5.35100        7.22100       -0.43800
C          4.58300        5.38200        0.28900
H          5.11800        4.92200       -0.54200
C          5.47600        5.18100        1.53400
H          5.58200        4.11700        1.74100
H          6.46900        5.58000        1.32700
C          4.95200        5.86800        2.78300
O          5.46600        6.88600        3.21900
N          3.90600        5.34900        3.37700
H          3.52100        5.85600        4.15000
H          3.42900        4.57400        2.93200
C          3.23600        4.61500        0.33400
O          3.04600        3.71800        1.15200
N          2.28300        4.94100       -0.52900
H          2.41300        5.72800       -1.14100
H          1.39900        4.46300       -0.46600
