30
0 1
H         -2.34900       -2.72600        9.70100
C         -2.48800       -1.65500        9.84000
H         -2.00600       -1.33100       10.76100
H         -3.55300       -1.42900        9.89000
C         -1.88800       -0.91300        8.67000
O         -2.58400       -0.18900        7.97400
N         -0.58100       -1.06800        8.46300
H         -0.07600       -1.67200        9.09200
C          0.16400       -0.45700        7.34900
H          1.13000       -0.95300        7.25200
H         -0.39400       -0.62600        6.42700
C          0.41700        1.05500        7.46000
O          1.38600        1.54700        6.88700
N         -0.38900        1.79100        8.23100
H         -1.21000        1.33400        8.61200
C         -0.26700        3.23800        8.49100
H         -0.06000        3.73700        7.54500
C         -1.59700        3.79900        9.03000
H         -1.48200        4.87000        9.20200
C         -2.76700        3.59600        8.06800
H         -2.98100        2.53400        7.94500
H         -3.65200        4.08600        8.47300
H         -2.53000        4.03400        7.09900
O         -1.92400        3.17600       10.25000
H         -1.24600        3.45800       10.87800
C          0.89900        3.58000        9.43800
O          0.71300        4.13900       10.51500
N          2.12400        3.22100        9.08400
H          2.88900        3.43300        9.70200
H          2.26200        2.73000        8.21000
