32
0 1
H         -2.94500       14.13800        6.56600
C         -3.47600       13.76800        5.69000
H         -3.35600       14.47200        4.86900
H         -4.53200       13.64900        5.92800
C         -2.89600       12.43100        5.29400
O         -1.98300       11.93800        5.94300
N         -3.43900       11.83100        4.23500
H         -4.19700       12.30200        3.76800
C         -3.00500       10.53600        3.69100
H         -3.41300       10.41300        2.68800
H         -1.91600       10.52800        3.61800
C         -3.43100        9.32600        4.53300
O         -4.13700        8.46000        4.02800
N         -3.04400        9.30100        5.81500
H         -2.48100       10.09300        6.11100
C         -3.35100        8.29100        6.85600
H         -2.83700        8.62100        7.75900
C         -4.85900        8.27700        7.20600
H         -5.42700        7.94900        6.33500
C         -5.18200        7.32500        8.36500
H         -4.95600        6.29600        8.08600
H         -4.59600        7.59300        9.24500
H         -6.24300        7.38100        8.60900
C         -5.35700        9.67400        7.60900
H         -5.25700       10.36700        6.77500
H         -6.41100        9.62600        7.88300
H         -4.78300       10.04600        8.45800
C         -2.80200        6.87700        6.59400
O         -2.25300        6.25700        7.49500
N         -2.89000        6.34200        5.38500
H         -3.35800        6.85400        4.65000
H         -2.51300        5.42100        5.23800
