40
0 1
H         14.19900        7.73500       -1.53700
C         13.17100        7.52900       -1.83200
H         13.16400        6.96600       -2.76300
H         12.63200        8.46600       -1.95900
C         12.50700        6.71200       -0.74900
O         13.13000        6.39500        0.25500
N         11.23700        6.36900       -0.95200
H         10.78200        6.66000       -1.80500
C         10.44300        5.58000       -0.00900
H         10.94000        4.62700        0.17000
H         10.37600        6.11200        0.94100
C          9.02600        5.30700       -0.52100
O          8.63700        5.78200       -1.58600
N          8.24500        4.54800        0.25000
H          8.61900        4.23200        1.13300
C          6.86900        4.12400       -0.06200
H          6.83000        3.84600       -1.11600
C          6.55600        2.86300        0.76200
H          5.53000        2.54700        0.57000
H          7.20500        2.05800        0.41300
C          6.76000        3.00600        2.24200
C          5.81400        3.39200        3.12700
H          4.78700        3.62400        2.86400
N          6.36800        3.48500        4.38900
H          5.84300        3.76500        5.20500
C          7.71300        3.18400        4.37600
C          8.70100        3.16800        5.37100
H          8.45500        3.42400        6.39000
C         10.01600        2.81400        5.02200
H         10.79200        2.79600        5.77500
C         10.32200        2.47800        3.69000
H         11.33500        2.19800        3.43000
C          9.32100        2.49600        2.69900
H          9.56900        2.21600        1.68600
C          7.99200        2.85600        3.01500
C          5.80900        5.23900        0.11700
O          4.69900        5.00700        0.58200
N          6.12600        6.47900       -0.22800
H          7.01600        6.65700       -0.67200
H          5.43600        7.20200       -0.10900
