33
0 1
H         15.48100       12.72800       10.21300
C         15.00500       12.88900       11.17900
H         15.38200       13.80800       11.62100
H         15.21500       12.04500       11.83400
C         13.51100       13.00000       10.97600
O         13.02800       12.82600        9.86600
N         12.78900       13.30300       12.05600
H         13.28100       13.43300       12.92400
C         11.32800       13.47200       12.05500
H         11.06300       14.24600       12.77400
H         11.00500       13.80800       11.06800
C         10.51600       12.21400       12.40100
O          9.29900       12.30100       12.52100
N         11.16700       11.06600       12.61300
H         12.16000       11.06200       12.41200
C         10.56400        9.74200       12.87000
H          9.78200        9.59500       12.12500
C         11.63400        8.65500       12.64300
H         12.32800        8.66000       13.48600
H         11.15300        7.67700       12.60900
C         12.43600        8.84800       11.38100
N         13.52400        9.71500       11.25400
C         13.85800        9.68900        9.95500
H         14.64900       10.28200        9.51400
N         13.04800        8.86100        9.27500
H         13.07600        8.71100        8.27700
C         12.13800        8.32500       10.15800
H         11.31600        7.66100        9.93100
C          9.87100        9.57000       14.24200
O          9.84400        8.48100       14.80200
N          9.31800       10.62000       14.83100
H          8.87100       10.49000       15.72200
H          9.26600       11.49500       14.32800
