35
0 1
H          8.16800        8.70600        1.73300
C          7.83600        9.72300        1.93200
H          8.38900       10.42500        1.31200
H          8.00100        9.95900        2.98300
C          6.36100        9.83900        1.63100
O          5.57700       10.17300        2.50900
N          5.98200        9.58300        0.37900
H          6.70000        9.33200       -0.28100
C          4.59200        9.61100       -0.10600
H          4.53800        9.10200       -1.06800
H          3.96600        9.06500        0.60100
C          3.99100       11.01400       -0.27200
O          3.39400       11.30000       -1.30600
N          4.18500       11.90200        0.70700
H          4.66600       11.56700        1.53600
C          3.72400       13.29700        0.71400
H          2.71800       13.33100        0.29300
C          3.64700       13.81100        2.17100
H          4.58200       13.58600        2.68700
H          3.55300       14.89700        2.12900
C          2.45500       13.29800        3.00600
H          1.53200       13.49500        2.46100
C          2.51300       11.80700        3.34800
H          3.47500       11.56100        3.79900
H          1.71600       11.55500        4.04700
H          2.36800       11.21000        2.45000
C          2.40100       14.06800        4.32800
H          3.30600       13.88200        4.90600
H          2.31400       15.13600        4.13000
H          1.53300       13.75200        4.90600
C          4.60400       14.18900       -0.19300
O          5.25700       15.12700        0.25000
N          4.66600       13.89100       -1.48200
H          4.14700       13.09400       -1.82900
H          5.23900       14.45900       -2.08200
