27
0 1
H          5.81700        3.47800       -4.79000
C          6.61300        3.38400       -5.52600
H          7.56300        3.66500       -5.07100
H          6.41400        4.03400       -6.37600
C          6.69800        1.95200       -5.99800
O          7.74000        1.32000       -5.85400
N          5.60400        1.45100       -6.57800
H          4.80900        2.06400       -6.66900
C          5.46400        0.08700       -7.11500
H          5.74900       -0.63200       -6.34600
H          4.42200       -0.09000       -7.38000
C          6.32400       -0.16800       -8.35900
O          5.80600       -0.30800       -9.46200
N          7.64100       -0.19200       -8.16700
H          7.94400       -0.04400       -7.21300
C          8.68200       -0.10400       -9.20200
H          8.34900        0.61200       -9.95400
C          9.96600        0.46200       -8.57400
H         10.36600       -0.24800       -7.84900
H         10.70900        0.62000       -9.35800
O          9.70200        1.70000       -7.93100
H          9.18900        1.54400       -7.12300
C          8.94000       -1.42900       -9.94200
O         10.07400       -1.86700      -10.09500
N          7.89600       -2.11700      -10.38300
H          8.05900       -2.98700      -10.86000
H          6.96700       -1.73600      -10.26300
