33
0 1
H          7.70000        5.13500        2.96100
C          6.87100        5.64500        2.47500
H          6.76500        6.65100        2.87900
H          5.95000        5.08700        2.64400
C          7.13100        5.72700        0.99000
O          6.34600        5.22100        0.19600
N          8.23000        6.37600        0.60700
H          8.80600        6.80300        1.31400
C          8.59100        6.57800       -0.79900
H          9.55600        7.08100       -0.85900
H          8.67500        5.61000       -1.29600
C          7.56000        7.43900       -1.53200
O          7.49600        8.64300       -1.31000
N          6.75200        6.81800       -2.39600
H          6.82300        5.81500       -2.46400
C          5.63600        7.47700       -3.09600
H          5.94800        8.48400       -3.38000
C          5.29900        6.70300       -4.38300
H          4.98000        5.69400       -4.12100
H          4.47400        7.20500       -4.89100
C          6.48700        6.63200       -5.35300
H          6.84000        7.64800       -5.53100
H          7.29900        6.07000       -4.89200
S          6.11900        5.88600       -6.96600
C          5.79000        4.16700       -6.49100
H          5.61200        3.57400       -7.38900
H          6.65000        3.76100       -5.95900
H          4.90700        4.12000       -5.85400
C          4.37100        7.64200       -2.23000
O          3.42600        8.30600       -2.63700
N          4.30000        7.04400       -1.04600
H          5.06600        6.47600       -0.71100
H          3.46400        7.17000       -0.50100
