27
0 1
H          7.84600        8.50300        0.61600
C          7.19800        9.34900        0.83900
H          6.28500        9.28500        0.25100
H          7.71800       10.27800        0.60800
C          6.84900        9.33700        2.30900
O          7.15500       10.28200        3.02300
N          6.20600        8.26400        2.76200
H          5.98500        7.51800        2.11900
C          5.79400        8.08700        4.15600
H          6.67500        8.12200        4.79800
H          5.13200        8.90400        4.44200
C          5.06800        6.76000        4.39000
O          4.85600        5.98400        3.45900
N          4.67500        6.49700        5.63800
H          4.85400        7.18400        6.35800
C          3.96900        5.27900        6.07000
H          4.42900        4.42200        5.57800
C          4.16100        5.10700        7.58300
H          3.67000        4.19100        7.91600
H          5.22600        5.03500        7.80600
O          3.61500        6.21700        8.26800
H          2.65300        6.15800        8.16600
C          2.47800        5.28100        5.67700
O          1.59200        5.21700        6.52400
N          2.16800        5.39400        4.39300
H          1.19700        5.41000        4.12900
H          2.91000        5.47100        3.70900
