30
0 1
H          2.92600        7.66200       -2.47600
C          3.57100        7.77700       -1.60800
H          3.64100        8.83100       -1.34100
H          4.56700        7.39400       -1.82700
C          2.99400        7.01500       -0.44000
O          2.77000        7.58400        0.62100
N          2.77700        5.71100       -0.61900
H          2.99500        5.31400       -1.51900
C          2.21900        4.82800        0.42100
H          1.25400        5.22300        0.74000
H          2.05900        3.83700       -0.00400
C          3.09600        4.66700        1.67200
O          2.63300        4.15800        2.68600
N          4.34900        5.12400        1.61900
H          4.65600        5.53800        0.74900
C          5.26600        5.23800        2.75500
H          5.14100        4.36400        3.39700
C          6.69700        5.24400        2.19200
H          7.41500        5.25700        3.01300
H          6.86700        4.33900        1.61000
C          6.92900        6.44500        1.29400
O          6.57100        6.44700        0.12800
N          7.46800        7.51700        1.82300
H          7.57400        8.31400        1.22200
H          7.64900        7.54800        2.81300
C          5.01600        6.48400        3.64000
O          5.80600        6.76700        4.53500
N          3.99300        7.29000        3.38000
H          3.38800        7.11300        2.59000
H          3.86000        8.10100        3.96000
