35
0 1
H          1.24400       -0.09300        6.16200
C          1.17200       -0.46800        7.18200
H          1.47600        0.31200        7.87900
H          1.81600       -1.33700        7.30500
C         -0.25800       -0.85700        7.47200
O         -0.88100       -0.29600        8.36700
N         -0.78800       -1.81100        6.70900
H         -0.22700       -2.19700        5.96600
C         -2.17500       -2.26800        6.83600
H         -2.34700       -3.10300        6.15600
H         -2.35400       -2.61200        7.85500
C         -3.17400       -1.16100        6.49000
O         -3.39400       -0.87600        5.31800
N         -3.76100       -0.53500        7.51500
H         -3.46300       -0.78900        8.44400
C         -4.63800        0.64000        7.37800
H         -5.29000        0.46900        6.51900
C         -5.53300        0.75100        8.63700
H         -5.98700       -0.23000        8.79100
C         -4.72000        1.09800        9.90100
H         -3.88800        0.40600       10.02800
H         -4.32900        2.11400        9.83300
H         -5.35300        1.02700       10.78400
C         -6.68300        1.76100        8.42600
H         -6.29800        2.78100        8.46900
H         -7.11200        1.60300        7.43500
C         -7.81900        1.62100        9.44800
H         -7.46400        1.86800       10.44800
H         -8.62400        2.30800        9.18600
H         -8.20600        0.60200        9.43800
C         -3.86400        1.94300        7.08100
O         -4.43600        2.92200        6.61900
N         -2.55900        1.99400        7.32300
H         -2.08100        1.19100        7.70900
H         -2.07000        2.84600        7.11100
