23
0 1
H         13.45600       19.61000       -2.60400
C         12.94100       18.65300       -2.66000
H         12.41900       18.56600       -3.61100
H         12.22200       18.58000       -1.84400
C         13.94300       17.53100       -2.53100
O         13.86300       16.73600       -1.60400
N         14.90400       17.47600       -3.45300
H         14.90000       18.18100       -4.17200
C         15.94500       16.43800       -3.52400
H         15.47400       15.46100       -3.40800
H         16.41700       16.47100       -4.50600
C         17.04800       16.55200       -2.46100
O         18.22500       16.53700       -2.80700
N         16.68300       16.72200       -1.18700
H         15.68500       16.72000       -0.99700
C         17.59000       16.84300       -0.03600
H         17.02000       16.69800        0.88200
H         18.33800       16.05200       -0.09700
C         18.33500       18.18100        0.07400
O         18.40300       18.76600        1.14600
N         18.86500       18.71600       -1.01700
H         18.83100       18.19900       -1.88500
H         19.34700       19.59600       -0.93700
