43
0 1
H          5.76500        3.91600       -0.21600
C          4.88600        4.44100        0.15400
H          4.65800        4.11300        1.16700
H          4.03600        4.24600       -0.49600
C          5.17000        5.92300        0.16500
O          6.20300        6.36100       -0.32600
N          4.25800        6.70000        0.74700
H          3.46600        6.25900        1.19800
C          4.35300        8.16500        0.86500
H          4.51100        8.59400       -0.12500
C          3.02500        8.68900        1.43100
H          3.06400        9.77700        1.49400
H          2.21600        8.42300        0.74900
C          2.71000        8.12400        2.79400
N          2.26600        6.82300        3.03900
C          2.21700        6.69900        4.37300
H          1.91400        5.79900        4.89300
N          2.61000        7.83900        4.96800
H          2.67700        7.98500        5.96500
C          2.93300        8.74900        3.98600
H          3.32800        9.74800        4.11700
C          5.52000        8.64700        1.74400
O          5.87000        9.82200        1.70200
N          6.12500        7.75700        2.53500
H          5.76800        6.81000        2.54000
C          7.35200        8.00300        3.30100
H          7.31900        9.01300        3.71300
C          7.40000        6.99600        4.45800
H          8.26500        7.21200        5.08700
H          6.50600        7.11300        5.07100
C          7.47800        5.56500        3.98800
N          6.41000        4.81800        3.48400
C          6.93200        3.64000        3.11400
H          6.36400        2.82700        2.68000
N          8.25600        3.61600        3.34400
H          8.87600        2.84800        3.12800
C          8.62000        4.82600        3.89000
H          9.61500        5.15800        4.15600
C          8.63700        7.91400        2.45400
O          9.72600        8.14700        2.96700
N          8.56500        7.55400        1.17800
H          7.67200        7.32400        0.76100
H          9.41500        7.50600        0.64400
