40
0 1
H          7.64100        3.76700        0.88500
C          7.25900        4.12900       -0.06800
H          7.26300        3.31900       -0.79600
H          7.87800        4.94800       -0.42700
C          5.84200        4.61700        0.11700
O          4.93000        4.13600       -0.54400
N          5.65800        5.59300        1.00500
H          6.45700        5.89700        1.54900
C          4.34500        6.11500        1.42500
H          3.75800        5.28700        1.82500
C          4.55900        7.14300        2.54900
H          5.04700        8.02500        2.13300
H          3.58700        7.45100        2.93600
C          5.40300        6.63900        3.69500
N          6.78500        6.43500        3.65000
C          7.12900        5.98200        4.86400
H          8.14000        5.73100        5.15900
N          6.04600        5.88600        5.65500
H          6.05000        5.57100        6.61500
C          4.94600        6.29500        4.93400
H          3.92000        6.34100        5.27100
C          3.50000        6.73900        0.30200
O          2.30200        6.92700        0.48000
N          4.10100        7.05000       -0.84800
H          5.08800        6.86100       -0.93400
C          3.41000        7.52800       -2.05900
H          2.59600        8.18900       -1.76100
C          4.37800        8.33400       -2.94100
H          3.85900        8.66000       -3.84400
C          4.92000        9.57500       -2.23100
H          5.52400        9.28900       -1.37000
H          5.54000       10.14200       -2.92400
H          4.09200       10.20100       -1.90100
O          5.48300        7.53700       -3.30600
H          5.19800        6.95600       -4.01800
C          2.77700        6.40400       -2.89200
O          2.18600        6.67100       -3.93100
N          2.90600        5.13900       -2.51000
H          2.47800        4.42200       -3.07000
H          3.43700        4.90500       -1.68100
