40
0 1
H         -8.12400       -1.36700       -9.49900
C         -8.10000       -1.57700       -8.43000
H         -7.92100       -2.63800       -8.26800
H         -9.04900       -1.29200       -7.98000
C         -6.98900       -0.77700       -7.79400
O         -6.27100       -0.06100       -8.48100
N         -6.82800       -0.91900       -6.48000
H         -7.49600       -1.50000       -5.98500
C         -5.93300       -0.10700       -5.63500
H         -6.22800        0.93800       -5.73200
C         -6.13000       -0.52600       -4.16800
H         -5.74200       -1.53700       -4.03300
H         -5.54900        0.14000       -3.52800
C         -7.56800       -0.51100       -3.70600
N         -8.55000       -1.42500       -4.09800
C         -9.67100       -1.05400       -3.46200
H        -10.62100       -1.56600       -3.54700
N         -9.44500        0.03600       -2.70800
H        -10.13300        0.50100       -2.13200
C         -8.12300        0.39500       -2.85000
H         -7.61200        1.22300       -2.37900
C         -4.43900       -0.16400       -5.99700
O         -3.67100        0.66200       -5.51400
N         -4.01700       -1.10600       -6.84500
H         -4.71100       -1.72800       -7.22600
C         -2.65300       -1.18000       -7.38100
H         -1.95900       -0.99100       -6.55900
C         -2.42800       -2.61800       -7.90000
H         -3.02400       -3.31600       -7.31200
H         -2.75000       -2.68700       -8.93800
C         -0.98800       -3.10800       -7.80800
O         -0.72900       -4.21800       -7.38400
N         -0.00500       -2.32000       -8.16800
H          0.92300       -2.68800       -8.07800
H         -0.19700       -1.38700       -8.52000
C         -2.37600       -0.11200       -8.46900
O         -1.23300        0.08000       -8.87000
N         -3.38300        0.58100       -8.98800
H         -3.17800        1.27400       -9.68700
H         -4.33400        0.41300       -8.68300
