37
0 1
H          3.51600        9.09700       -1.20200
C          4.52800        8.70900       -1.30800
H          4.51000        7.80500       -1.91400
H          4.94400        8.49200       -0.32700
C          5.38000        9.74900       -1.99600
O          4.88700       10.80100       -2.37800
N          6.66600        9.45000       -2.17100
H          7.00400        8.55000       -1.85200
C          7.62700       10.30800       -2.88300
H          7.48900       11.34100       -2.56000
C          9.04700        9.85500       -2.51100
H          9.76600       10.55100       -2.94600
H          9.16400        9.89100       -1.42800
C          9.36900        8.45800       -2.98600
N          8.76800        7.28900       -2.51600
C          9.31700        6.28400       -3.21400
H          9.06300        5.23900       -3.08800
N         10.21100        6.76200       -4.09800
H         10.74200        6.20300       -4.75100
C         10.25200        8.13300       -3.97300
H         10.85200        8.82900       -4.54500
C          7.45500       10.29500       -4.41200
O          8.09100       11.08200       -5.10900
N          6.63300        9.38800       -4.94300
H          6.12600        8.78500       -4.31100
C          6.30900        9.25600       -6.36200
H          6.17500       10.25500       -6.78100
C          7.48100        8.57200       -7.08900
H          7.26400        8.51200       -8.15600
H          8.38400        9.17000       -6.95600
S          7.77100        6.89600       -6.44900
H          8.10900        7.26700       -5.20500
C          4.98200        8.49100       -6.53700
O          4.47600        7.86700       -5.60900
N          4.39200        8.52700       -7.72400
H          4.80400        9.03800       -8.48600
H          3.52600        8.02500       -7.83300
