43
0 1
H         -2.25900       10.83700        6.10000
C         -1.97100        9.91300        5.60100
H         -2.43100        9.86200        4.61600
H         -2.28900        9.06000        6.19800
C         -0.46800        9.87400        5.45300
O          0.17600        8.97200        5.97100
N          0.08500       10.85700        4.74500
H         -0.51600       11.57300        4.36400
C          1.52400       11.00900        4.49900
H          2.08100       10.65300        5.36900
C          1.92600       10.14700        3.29100
H          1.78500        9.09500        3.54400
H          1.26800       10.38600        2.45500
C          3.35200       10.33800        2.84100
N          4.46800       10.34000        3.67600
C          5.53400       10.47900        2.87800
H          6.55800       10.51000        3.22700
N          5.14700       10.57000        1.59400
H          5.76700       10.65100        0.80000
C          3.77200       10.48200        1.55100
H          3.13900       10.49400        0.67300
C          1.87500       12.48600        4.28400
O          1.11500       13.21400        3.64700
N          3.01900       12.93500        4.80600
H          3.62800       12.27400        5.27900
C          3.50300       14.32200        4.69700
H          2.64600       14.99700        4.70900
C          4.37800       14.63400        5.92000
H          4.70500       15.67400        5.87500
H          3.77900       14.51400        6.82400
C          5.58700       13.74000        6.03000
N          5.56200       12.41000        6.44800
C          6.82400       11.97000        6.35800
H          7.14100       10.96900        6.62100
N          7.62900       12.94600        5.90100
H          8.62600       12.86400        5.76000
C          6.86300       14.07000        5.68100
H          7.18800       15.02700        5.29500
C          4.26600       14.61800        3.39400
O          4.69300       15.74300        3.16400
N          4.47900       13.63900        2.52600
H          4.16100       12.70500        2.73900
H          4.96500       13.85500        1.67400
