37
0 1
H          6.40700        3.22800       -2.62600
C          5.47100        3.78000       -2.68600
H          4.63300        3.10800       -2.51100
H          5.37700        4.24000       -3.66800
C          5.46800        4.86300       -1.63400
O          5.39000        6.04200       -1.95900
N          5.53900        4.46600       -0.36600
H          5.54000        3.47600       -0.16400
C          5.54500        5.38600        0.77500
H          4.67200        6.03300        0.68800
C          5.43100        4.59100        2.08500
H          6.33600        3.99700        2.22000
H          5.36300        5.29000        2.91900
C          4.24800        3.65400        2.13300
N          4.15300        2.44100        1.44600
C          2.95000        1.93700        1.75200
H          2.56900        0.99500        1.37900
N          2.29200        2.76400        2.58300
H          1.36700        2.60200        2.95500
C          3.09500        3.85500        2.83400
H          2.86800        4.70600        3.46000
C          6.79900        6.27300        0.78600
O          7.92400        5.77600        0.75200
N          6.61100        7.59000        0.89300
H          5.66500        7.94200        0.90800
C          7.67500        8.60500        0.90600
H          8.40800        8.33900        0.14300
C          7.06700        9.95900        0.51600
H          7.85400       10.71300        0.46200
H          6.59500        9.87400       -0.46500
O          6.09900       10.34800        1.47000
H          6.58300       10.52800        2.28900
C          8.42400        8.67500        2.25200
O          8.43100        9.69800        2.93000
N          9.03200        7.58200        2.68900
H          9.51500        7.61300        3.57100
H          8.98800        6.73700        2.13100
