40
0 1
H          7.53200        5.04600        2.24700
C          7.85400        5.86700        1.60900
H          7.49700        5.71000        0.59300
H          8.94100        5.92800        1.61200
C          7.28900        7.16200        2.14300
O          8.03800        8.06200        2.49800
N          5.96200        7.25700        2.19400
H          5.40800        6.46300        1.90500
C          5.21900        8.41000        2.71700
H          5.74700        8.80200        3.58700
C          5.16000        9.52000        1.65100
H          4.62500       10.38000        2.05600
H          6.17500        9.84800        1.42600
C          4.49000        9.10800        0.36500
N          3.11400        8.97400        0.18100
C          2.95100        8.57000       -1.08700
H          1.99100        8.37400       -1.54800
N          4.14100        8.44600       -1.69800
H          4.27900        8.15600       -2.65600
C          5.12600        8.78000       -0.79500
H          6.19600        8.78000       -0.95600
C          3.81500        7.98500        3.17700
O          3.38000        6.86300        2.92200
N          3.10700        8.87000        3.88200
H          3.49700        9.78600        4.04700
C          1.77900        8.60800        4.47100
H          1.74400        7.56200        4.77600
C          1.57200        9.46000        5.73600
H          0.60500        9.22100        6.18000
C          2.64900        9.22400        6.79500
H          2.69500        8.16400        7.04300
H          3.62200        9.55700        6.43500
H          2.39500        9.78600        7.69400
O          1.59700       10.82700        5.39700
H          0.75000       11.02500        4.98300
C          0.60900        8.80200        3.49000
O         -0.51100        9.08200        3.90400
N          0.82300        8.71900        2.18500
H          1.74600        8.51100        1.82700
H          0.04900        8.87000        1.56100
