43
0 1
H          2.19800        8.25800       -6.08800
C          2.59600        9.22500       -5.78200
H          1.93900       10.01900       -6.13200
H          3.59300        9.36100       -6.19500
C          2.66900        9.27500       -4.27500
O          2.07500       10.14900       -3.65700
N          3.40700        8.33700       -3.68400
H          3.79800        7.61900       -4.28200
C          3.52700        8.09300       -2.23600
H          2.52100        8.11800       -1.81600
C          4.08700        6.67200       -2.02200
H          5.13400        6.65500       -2.32900
H          4.04600        6.42900       -0.96000
C          3.36100        5.59400       -2.79200
N          3.46300        5.37800       -4.16900
C          2.66200        4.33700       -4.43800
H          2.52000        3.91300       -5.42400
N          2.06600        3.89900       -3.31500
H          1.42000        3.12400       -3.26000
C          2.49400        4.68100       -2.26500
H          2.21100        4.59700       -1.22500
C          4.33700        9.15700       -1.46000
O          5.16100        8.82100       -0.61100
N          4.12800       10.44200       -1.75400
H          3.39800       10.64400       -2.42900
C          4.83000       11.58300       -1.15000
H          5.88500       11.31700       -1.07400
C          4.72100       12.79100       -2.10000
H          5.00300       12.48000       -3.10600
H          3.68300       13.12600       -2.13600
C          5.60900       13.97400       -1.68700
H          5.43800       14.79100       -2.38900
H          5.29700       14.32500       -0.70300
S          7.39600       13.64300       -1.62600
C          7.76000       13.37900       -3.38300
H          7.44500       14.24900       -3.95800
H          8.83300       13.23400       -3.50900
H          7.23700       12.49300       -3.74100
C          4.34100       11.87700        0.28400
O          3.66900       12.86600        0.55500
N          4.63300       10.99400        1.22700
H          5.12700       10.14900        0.97300
H          4.31100       11.16500        2.16400
