40
0 1
H         -1.47000        5.09100       11.51800
C         -1.62800        6.01400       12.07300
H         -2.25400        6.68800       11.48900
H         -0.67000        6.48700       12.28300
C         -2.32800        5.69600       13.37100
O         -2.72100        4.55800       13.60100
N         -2.50600        6.70700       14.22000
H         -2.09700        7.60400       13.98800
C         -3.12200        6.58300       15.55300
H         -2.55400        5.85100       16.12900
C         -3.03800        7.94000       16.27100
H         -3.69400        8.65000       15.76500
H         -3.39900        7.82300       17.29300
C         -1.65000        8.53400       16.30800
N         -0.99200        9.11200       15.22000
C          0.20700        9.49800       15.67800
H          0.96200        9.99000       15.07800
N          0.33400        9.19000       16.98100
H          1.14700        9.38100       17.55000
C         -0.82800        8.57800       17.39600
H         -1.05700        8.20300       18.38400
C         -4.57800        6.08900       15.53500
O         -5.08600        5.64300       16.55700
N         -5.24200        6.14500       14.37800
H         -4.74800        6.51900       13.57800
C         -6.56900        5.57600       14.13300
H         -7.19700        5.76600       15.00500
C         -7.17000        6.30700       12.92100
H         -8.19600        5.97500       12.76300
H         -7.18800        7.38000       13.11000
C         -6.35800        6.05100       11.66500
O         -5.36700        6.71000       11.40100
N         -6.71300        5.05300       10.89200
H         -6.13600        4.87700       10.09000
H         -7.45700        4.43900       11.18100
C         -6.56700        4.04300       13.90900
O         -7.59800        3.47600       13.56100
N         -5.43700        3.35600       14.01700
H         -5.45800        2.36500       13.85100
H         -4.56600        3.83200       14.21300
