37
0 1
H         11.90600       -6.65200        2.33700
C         11.19500       -6.72200        3.15800
H         11.58800       -6.21400        4.03600
H         11.01000       -7.76900        3.39200
C          9.89300       -6.07500        2.74700
O          8.85700       -6.72800        2.72800
N          9.94400       -4.78500        2.42000
H         10.84100       -4.32100        2.41800
C          8.79800       -4.00900        1.92600
H          8.21300       -4.65200        1.26600
C          7.90100       -3.59300        3.10700
H          7.97200       -4.33600        3.90300
H          8.24400       -2.64100        3.51600
C          6.44500       -3.48000        2.72700
N          5.86400       -2.43200        2.01100
C          4.57200       -2.75800        1.85900
H          3.83900       -2.14400        1.35100
N          4.32200       -3.95400        2.42000
H          3.42600       -4.42100        2.43100
C          5.49400       -4.42800        2.96600
H          5.65200       -5.37200        3.47200
C          9.26800       -2.80000        1.09800
O         10.46500       -2.52800        1.01900
N          8.33500       -2.06400        0.49100
H          7.36900       -2.28900        0.70800
C          8.57000       -0.90300       -0.38400
H          9.39300       -1.15600       -1.05400
C          7.32500       -0.68200       -1.25600
H          7.08100       -1.60800       -1.77800
H          6.48200       -0.40100       -0.62200
O          7.55500        0.33200       -2.20900
H          7.75900        1.13800       -1.70900
C          8.99400        0.38000        0.36700
O          8.52100        1.47700        0.08100
N          9.86500        0.28100        1.36100
H         10.28400       -0.61700        1.56100
H         10.13200        1.11600        1.85400
