43
0 1
H         -4.87600       12.67000        3.63900
C         -3.85500       13.03200        3.73700
H         -3.19600       12.20300        3.99300
H         -3.80100       13.79400        4.51200
C         -3.40500       13.62300        2.42200
O         -2.43900       13.15400        1.83700
N         -4.10800       14.65700        1.96500
H         -4.87900       14.99700        2.52100
C         -3.82600       15.38100        0.71900
H         -2.74700       15.40300        0.54700
C         -4.47900       14.64300       -0.46500
H         -3.97000       13.69000       -0.61800
H         -5.52400       14.43900       -0.22900
C         -4.42200       15.43400       -1.74600
N         -3.25200       15.77900       -2.41800
C         -3.61700       16.64700       -3.37100
H         -2.93000       17.13800       -4.04500
N         -4.94200       16.86100       -3.33100
H         -5.43300       17.55100       -3.88200
C         -5.47000       16.10100       -2.31100
H         -6.49100       16.09500       -1.95900
C         -4.31700       16.83400        0.80700
O         -5.33000       17.11000        1.45300
N         -3.63400       17.76200        0.13200
H         -2.83200       17.45800       -0.41500
C         -4.02800       19.17000       -0.02000
H         -4.39600       19.52900        0.94200
C         -2.79000       20.01200       -0.38000
H         -3.10000       21.02800       -0.62800
H         -2.15400       20.07400        0.50300
C         -1.94800       19.45700       -1.50300
N         -1.04500       18.40100       -1.37300
C         -0.51300       18.21800       -2.58800
H          0.22700       17.46300       -2.82200
N         -1.02900       19.09800       -3.46500
H         -0.77300       19.17000       -4.43900
C         -1.94300       19.88500       -2.79800
H         -2.55600       20.67800       -3.20400
C         -5.19400       19.34000       -1.01500
O         -5.06500       19.89800       -2.10000
N         -6.37000       18.84300       -0.65900
H         -6.44400       18.33700        0.21400
H         -7.15200       18.95300       -1.28100
