37
0 1
H         10.30900       -0.36900       12.83300
C          9.77500       -1.19000       12.35600
H          8.70600       -0.98500       12.36000
H          9.97300       -2.11500       12.89400
C         10.25400       -1.33200       10.93200
O         11.11000       -0.57500       10.48900
N          9.66400       -2.26900       10.19300
H          8.89900       -2.78500       10.61300
C         10.00900       -2.65600        8.81000
H         11.07900       -2.86300        8.76900
C          9.25500       -3.95600        8.48700
H          9.55100       -4.31900        7.50200
H          9.53000       -4.72000        9.21500
C          7.75700       -3.77900        8.52200
N          6.98500       -3.68600        9.68300
C          5.73100       -3.45500        9.26900
H          4.88000       -3.33600        9.92800
N          5.68400       -3.37800        7.92700
H          4.85600       -3.19500        7.37700
C          6.95600       -3.57200        7.43800
H          7.28200       -3.53200        6.40700
C          9.74000       -1.58500        7.72900
O          9.71400       -1.89700        6.54200
N          9.53300       -0.32900        8.12700
H          9.63000       -0.15700        9.11800
C          9.31000        0.82800        7.25100
H          9.82000        0.64500        6.30400
C          7.81000        0.96000        6.95000
H          7.43700        0.01600        6.55000
H          7.27400        1.18800        7.87300
O          7.57000        1.98100        6.00500
H          8.03900        2.77400        6.31500
C          9.90400        2.12800        7.83100
O          9.53300        3.22700        7.43200
N         10.80400        2.04900        8.80700
H         11.11300        1.15100        9.15400
H         11.17900        2.90500        9.17900
