40
0 1
H          5.26000        5.48200        1.23400
C          5.51900        6.49200        0.92200
H          5.02300        6.72500       -0.01800
H          6.59800        6.57200        0.79600
C          5.07200        7.47300        1.97900
O          5.88700        8.18900        2.54600
N          3.77500        7.48600        2.27500
H          3.17400        6.82300        1.80000
C          3.10600        8.38400        3.23500
H          3.46800        9.39700        3.05900
C          1.59800        8.35700        2.93100
H          1.07300        9.03600        3.60300
H          1.43800        8.71500        1.91300
C          0.99600        6.97700        3.04300
N          1.14900        5.95600        2.10200
C          0.51500        4.89000        2.61300
H          0.44400        3.92700        2.12400
N         -0.00500        5.18400        3.81800
H         -0.51400        4.54300        4.41000
C          0.29500        6.49600        4.10800
H          0.06200        7.04300        5.01300
C          3.40600        8.07600        4.72100
O          2.56300        8.28900        5.59000
N          4.60400        7.57500        5.03300
H          5.28000        7.53300        4.27800
C          5.02900        7.08400        6.36000
H          4.19500        6.51100        6.76600
C          6.19500        6.09000        6.19500
H          5.89300        5.32400        5.48000
C          7.49700        6.72100        5.69600
H          8.25700        5.94500        5.60000
H          7.34200        7.17700        4.71800
H          7.85200        7.47800        6.39400
O          6.47200        5.45400        7.41600
H          6.64300        6.16300        8.05500
C          5.31500        8.18700        7.40400
O          6.10200        8.00300        8.32800
N          4.71000        9.36100        7.28900
H          4.90500       10.07100        7.97300
H          3.99700        9.48000        6.58400
