43
0 1
H         12.85100       -2.63100       -8.63000
C         12.28600       -2.75100       -7.70800
H         12.78200       -3.47900       -7.06800
H         11.27500       -3.08600       -7.93100
C         12.22500       -1.42500       -6.98700
O         12.70800       -1.31500       -5.86600
N         11.62100       -0.42800       -7.63300
H         11.24600       -0.62200       -8.54700
C         11.49600        0.95200       -7.13600
H         11.13500        1.56200       -7.96500
C         10.41300        1.04300       -6.04200
H         10.74300        0.50400       -5.15300
H         10.26500        2.08900       -5.77200
C          9.08600        0.47700       -6.47800
N          8.29900        0.98100       -7.51400
C          7.21800        0.19100       -7.57300
H          6.40400        0.32200       -8.27400
N          7.29100       -0.77700       -6.64200
H          6.59400       -1.49000       -6.48400
C          8.46600       -0.61300       -5.94100
H          8.83900       -1.21800       -5.12600
C         12.85700        1.56600       -6.76400
O         13.68000        1.79000       -7.64600
N         13.10500        1.84400       -5.48200
H         12.40100        1.60800       -4.79300
C         14.37100        2.37600       -4.95800
H         14.77300        3.10100       -5.66700
C         14.07000        3.09600       -3.63500
H         14.98800        3.54000       -3.24700
H         13.36300        3.90500       -3.82200
C         13.48300        2.17900       -2.59100
N         12.16700        1.70900       -2.57900
C         12.09000        0.86300       -1.54200
H         11.19600        0.32300       -1.25800
N         13.27800        0.77200       -0.91900
H         13.47900        0.18400       -0.12300
C         14.17300        1.59100       -1.57200
H         15.22500        1.72200       -1.36000
C         15.46600        1.31000       -4.75700
O         16.57100        1.63500       -4.33800
N         15.20000        0.03500       -5.00700
H         15.92800       -0.64300       -4.86900
H         14.28000       -0.24100       -5.32600
