43
0 1
H         -0.18400       12.06900       -2.15800
C         -0.48900       12.63400       -1.27900
H         -1.29400       12.11200       -0.76600
H         -0.82700       13.62400       -1.58100
C          0.68800       12.77800       -0.34500
O          1.11300       13.89000       -0.05100
N          1.24100       11.65000        0.10000
H          0.86400       10.77400       -0.24200
C          2.35300       11.53800        1.06500
H          2.13500       12.19900        1.90500
C          2.38100       10.09600        1.59700
H          3.16300        9.99900        2.35200
H          1.43000        9.88400        2.08600
C          2.59700        9.06200        0.52000
N          1.62100        8.61200       -0.37200
C          2.23200        7.71400       -1.15900
H          1.74400        7.16400       -1.95300
N          3.53100        7.60300       -0.82800
H          4.20100        6.99300       -1.27400
C          3.78000        8.45200        0.22800
H          4.72400        8.62600        0.73000
C          3.73200       11.99000        0.53100
O          4.77000       11.50000        0.97100
N          3.74500       12.92100       -0.42200
H          2.84200       13.26000       -0.72400
C          4.92900       13.51300       -1.05600
H          5.74900       13.47400       -0.33800
C          5.34100       12.67100       -2.28000
H          6.35000       12.97000       -2.56700
H          5.38900       11.61900       -1.99600
C          4.44300       12.82700       -3.52200
H          4.48200       13.86700       -3.84700
H          4.87800       12.22900       -4.32300
S          2.69300       12.35500       -3.36700
C          2.84600       10.58600       -3.00900
H          1.85300       10.14500       -2.93100
H          3.39800       10.09500       -3.81000
H          3.37000       10.44200       -2.06400
C          4.73700       15.00000       -1.41600
O          5.62300       15.61600       -1.99400
N          3.59800       15.61000       -1.10100
H          2.85900       15.11200       -0.62600
H          3.49500       16.57800       -1.35200
