43
0 1
H          4.86300       -5.97100       10.34400
C          4.37600       -5.00700       10.48200
H          4.79400       -4.50600       11.35300
H          3.30600       -5.15200       10.61600
C          4.61400       -4.15800        9.25500
O          5.26600       -4.59900        8.31700
N          4.08800       -2.93500        9.26400
H          3.59600       -2.62300       10.08900
C          4.23600       -1.95900        8.17900
H          5.21600       -2.09700        7.71900
C          3.16400       -2.22100        7.10400
H          3.23800       -3.25500        6.76400
H          2.17500       -2.07600        7.54100
C          3.30000       -1.31900        5.90500
N          2.58900       -0.13600        5.70200
C          3.13400        0.44300        4.62200
H          2.81400        1.38900        4.20600
N          4.15300       -0.30000        4.15800
H          4.76100       -0.04500        3.39300
C          4.27600       -1.41400        4.95800
H          5.03300       -2.18400        4.89800
C          4.18700       -0.52000        8.71400
O          3.71400       -0.28100        9.82300
N          4.69100        0.43700        7.93100
H          5.05900        0.16300        7.02800
C          4.78700        1.86300        8.26600
H          5.29700        1.96100        9.22500
C          5.62900        2.56000        7.18200
H          5.03400        2.63700        6.27100
H          5.86500        3.57300        7.51200
C          6.91200        1.84400        6.83400
N          7.01100        0.73200        5.99000
C          8.30600        0.38500        5.99400
H          8.71900       -0.44800        5.43800
N          9.01300        1.20800        6.78800
H         10.00600        1.14300        6.96100
C          8.14900        2.13400        7.33000
H          8.38700        2.92800        8.02500
C          3.43700        2.58700        8.41100
O          3.38900        3.68800        8.94400
N          2.33700        2.02300        7.93000
H          2.39300        1.13300        7.45600
H          1.46100        2.50200        8.04800
