43
0 1
H          4.16600       -2.63700       -1.80800
C          3.86100       -2.87600       -2.82500
H          2.83800       -2.54600       -2.99400
H          3.93100       -3.95100       -2.98500
C          4.77900       -2.17500       -3.79800
O          5.44200       -2.82400       -4.59800
N          4.81700       -0.84600       -3.73200
H          4.27500       -0.37800       -3.01900
C          5.69800        0.00100       -4.54600
H          6.65600       -0.51000       -4.65700
C          5.08800        0.18500       -5.94800
H          4.56700       -0.72600       -6.24500
H          4.35700        0.99400       -5.92900
C          6.12700        0.47000       -7.00100
N          6.65000        1.72500       -7.31700
C          7.60400        1.50700       -8.23500
H          8.20700        2.28200       -8.68900
N          7.71300        0.19300       -8.49400
H          8.37100       -0.22600       -9.13600
C          6.79500       -0.47800       -7.71800
H          6.64100       -1.54800       -7.65300
C          5.97200        1.34300       -3.84700
O          5.35000        1.64700       -2.83000
N          6.90100        2.13900       -4.38000
H          7.33300        1.83600       -5.24600
C          7.38900        3.39500       -3.78800
H          6.73100        3.65900       -2.95900
C          8.79300        3.17000       -3.19200
H          9.01500        4.00800       -2.52900
H          8.78700        2.26500       -2.58300
C          9.93200        3.07800       -4.22200
H          9.94400        3.98800       -4.82200
H         10.87100        3.04400       -3.66900
S          9.89800        1.64400       -5.33700
C         11.40700        1.96900       -6.28500
H         11.32200        2.93000       -6.79200
H         12.26500        1.98800       -5.61200
H         11.54800        1.18000       -7.02400
C          7.34900        4.60200       -4.74600
O          7.79400        5.68900       -4.39800
N          6.84000        4.45500       -5.96300
H          6.50300        3.55300       -6.26800
H          6.81400        5.25800       -6.56900
