43
0 1
H          4.01100       10.16500        3.36400
C          4.32000        9.54000        4.19900
H          3.90600        8.54000        4.08800
H          3.97300        9.98000        5.13400
C          5.82800        9.45600        4.22700
O          6.44900        9.85800        5.20200
N          6.41300        8.92900        3.15400
H          5.83400        8.65300        2.37400
C          7.86300        8.80100        2.95900
H          8.35600        9.67900        3.38000
C          8.38500        7.56200        3.70900
H          9.47000        7.51400        3.60900
H          8.16500        7.67200        4.77100
C          7.80700        6.25600        3.22700
N          8.19900        5.58000        2.07100
C          7.42400        4.48800        2.00400
H          7.47800        3.74700        1.21700
N          6.57700        4.44700        3.04700
H          5.89500        3.72200        3.21900
C          6.80300        5.55700        3.83000
H          6.29300        5.83800        4.74100
C          8.20400        8.75900        1.46000
O          7.31600        8.74200        0.61000
N          9.49700        8.78500        1.13600
H         10.17100        8.80200        1.89400
C         10.03100        8.90900       -0.22700
H          9.44900        9.67000       -0.74900
C         11.49500        9.39300       -0.15300
H         12.10300        8.65900        0.38000
H         11.87900        9.45200       -1.17300
C         11.68500       10.78800        0.47800
H         12.65500       11.17100        0.16000
H         10.92300       11.46500        0.09000
C         11.66200       10.83400        2.00900
O         11.53400        9.84400        2.71000
N         11.76800       12.00200        2.59900
H         11.75100       11.98900        3.60400
H         11.87300       12.84500        2.06500
C          9.92100        7.63000       -1.08600
O         10.32200        7.62900       -2.24400
N          9.40500        6.52200       -0.56900
H          9.34200        5.70800       -1.15500
H          9.04700        6.51500        0.37700
