45
0 1
H          1.75700        0.38000       -3.75500
C          1.29100       -0.39400       -4.36000
H          2.03500       -1.12700       -4.66700
H          0.83300        0.05300       -5.24100
C          0.21900       -1.08300       -3.55100
O         -0.93200       -1.13400       -3.96500
N          0.59700       -1.60400       -2.38300
H          1.56300       -1.50600       -2.11500
C         -0.29000       -2.37500       -1.48700
H         -0.75600       -3.16000       -2.08300
C          0.52700       -3.06400       -0.36800
H         -0.17000       -3.67100        0.21100
C          1.56300       -4.02700       -0.98000
H          1.07900       -4.66600       -1.72000
H          2.37300       -3.47500       -1.45600
H          1.97900       -4.66900       -0.20400
C          1.17600       -2.04500        0.60000
H          1.91100       -1.44400        0.06400
H          0.40800       -1.37400        0.98400
C          1.86100       -2.69200        1.81000
H          1.15700       -3.33900        2.33400
H          2.72700       -3.27300        1.49400
H          2.19900       -1.91000        2.49200
C         -1.45900       -1.56300       -0.89400
O         -2.36100       -2.14000       -0.29600
N         -1.45700       -0.23800       -1.05600
H         -0.69000        0.17500       -1.57000
C         -2.56300        0.66000       -0.70900
H         -3.01600        0.32900        0.22700
C         -1.98300        2.06800       -0.51200
H         -2.77700        2.74100       -0.18800
H         -1.23000        2.03700        0.27700
C         -1.34700        2.62100       -1.76400
N         -0.10700        2.23400       -2.28400
C          0.02900        2.91000       -3.43500
H          0.88700        2.83800       -4.09000
N         -1.05100        3.67600       -3.66500
H         -1.19400        4.26000       -4.47700
C         -1.93400        3.50100       -2.62400
H         -2.91800        3.93700       -2.51200
C         -3.68900        0.68600       -1.76200
O         -4.70600        1.33700       -1.55600
N         -3.53700        0.02800       -2.90500
H         -2.67900       -0.47200       -3.09600
H         -4.28500        0.05500       -3.57600
