52
0 1
H          6.90500        9.94200       -2.04000
C          6.13600        9.85600       -1.27400
H          5.15900       10.03600       -1.72200
H          6.31300       10.58200       -0.48300
C          6.15900        8.46100       -0.69700
O          5.17000        7.74600       -0.78000
N          7.28400        8.08900       -0.08400
H          8.04400        8.74900       -0.05900
C          7.54100        6.73700        0.45500
H          7.44200        6.04200       -0.37800
C          9.00300        6.67000        0.96800
H          9.64900        7.01800        0.16000
C          9.23500        7.60100        2.17500
H         10.29300        7.60600        2.43800
H          8.93500        8.62300        1.94900
H          8.67200        7.24700        3.03900
C          9.48700        5.25700        1.36000
H         10.52500        5.32500        1.68900
H          8.90300        4.87600        2.19800
C          9.43400        4.24400        0.21000
H          9.97900        4.62900       -0.65200
H          9.89400        3.30900        0.53200
H          8.40000        4.04000       -0.07100
C          6.52300        6.27300        1.51800
O          6.35200        5.07700        1.72700
N          5.81700        7.20600        2.16300
H          6.01300        8.16900        1.95300
C          4.77300        6.92500        3.15600
H          5.12700        6.11900        3.79900
C          4.56100        8.17400        4.02800
H          3.91200        8.86300        3.48400
H          4.03400        7.88000        4.93700
C          5.80800        8.91800        4.41700
C          6.04500       10.22800        4.17800
H          5.35100       10.90100        3.68900
N          7.29300       10.57100        4.66100
H          7.67100       11.50600        4.61800
C          7.92900        9.49200        5.23600
C          9.18600        9.33300        5.83700
H          9.86400       10.16800        5.91500
C          9.54800        8.07100        6.33800
H         10.51200        7.92800        6.80700
C          8.65100        6.99300        6.23500
H          8.93100        6.02300        6.62400
C          7.38900        7.16500        5.63100
H          6.71300        6.32700        5.55800
C          6.99500        8.41900        5.11300
C          3.43800        6.44000        2.55500
O          2.51500        6.11100        3.29100
N          3.28300        6.40900        1.23700
H          4.03800        6.69200        0.62600
H          2.40900        6.07900        0.86600
