49
0 1
H          9.35600        3.54500       -8.29400
C          8.96800        3.82900       -9.27100
H          9.16400        3.04100       -9.99500
H          9.44900        4.75100       -9.59700
C          7.48100        4.06400       -9.16800
O          7.01000        5.17700       -9.37100
N          6.72900        3.00900       -8.85200
H          7.19500        2.13400       -8.67600
C          5.26000        3.04700       -8.73200
H          4.89200        3.75900       -9.47200
C          4.61800        1.67500       -9.07800
H          4.82500        0.97800       -8.26400
C          3.08800        1.83000       -9.22000
H          2.65700        2.29600       -8.33600
H          2.85100        2.44100      -10.09200
H          2.61800        0.85300       -9.32600
C          5.20700        1.07600      -10.38200
H          5.05500        1.77900      -11.20300
H          6.28000        0.93000      -10.25900
C          4.62700       -0.28600      -10.78700
H          4.68700       -0.98000       -9.94800
H          3.59000       -0.18300      -11.10600
H          5.20300       -0.68800      -11.62100
C          4.85500        3.60600       -7.35200
O          4.26600        2.91500       -6.52200
N          5.21600        4.86200       -7.08000
H          5.75400        5.34800       -7.79000
C          4.97400        5.56300       -5.80900
H          5.15300        4.85100       -5.00300
C          5.99800        6.70000       -5.64800
H          5.82300        7.44500       -6.42700
H          5.83300        7.18800       -4.68700
C          7.44900        6.25000       -5.69800
C          8.26200        6.58900       -6.79700
H          7.85500        7.16800       -7.61600
C          9.60500        6.16800       -6.83800
H         10.23500        6.42500       -7.67600
C         10.13700        5.40000       -5.78300
O         11.42900        4.98400       -5.83600
H         11.71400        4.59100       -5.01100
C          9.32400        5.05900       -4.68000
H          9.72700        4.47200       -3.86900
C          7.98300        5.48800       -4.64000
H          7.35900        5.23300       -3.79400
C          3.51400        6.04000       -5.63600
O          3.24400        7.17800       -5.26900
N          2.53600        5.19100       -5.92000
H          2.76700        4.24400       -6.18600
H          1.58400        5.50100       -5.81600
