45
0 1
H         13.59600        6.86400       -7.26400
C         12.88600        7.30200       -7.96500
H         12.71800        6.61600       -8.79300
H         13.27600        8.24300       -8.34900
C         11.57600        7.56000       -7.25900
O         11.13300        8.69900       -7.18500
N         10.96200        6.49800       -6.73600
H         11.43300        5.61000       -6.80600
C          9.61600        6.51400       -6.12800
H          8.93600        6.91200       -6.88100
C          9.18800        5.05900       -5.81300
H          9.31600        4.47400       -6.72700
C         10.07700        4.41800       -4.72900
H          9.80900        3.36700       -4.60700
H         11.12900        4.46900       -5.00600
H          9.93600        4.92300       -3.77200
C          7.71400        4.90200       -5.37600
H          7.51900        3.84400       -5.19100
H          7.53800        5.43700       -4.44300
C          6.70400        5.38000       -6.42600
H          6.76900        6.46000       -6.55300
H          6.89400        4.88600       -7.38000
H          5.69600        5.13200       -6.09300
C          9.48600        7.44200       -4.90400
O          8.39300        7.90400       -4.59400
N         10.59500        7.75700       -4.23000
H         11.46800        7.35500       -4.55300
C         10.66000        8.72000       -3.12300
H          9.79900        8.53400       -2.48000
C         11.93000        8.44800       -2.28600
H         11.78400        8.89100       -1.30000
H         12.03500        7.37100       -2.14100
C         13.24900        9.01000       -2.85500
H         13.21900       10.09900       -2.80600
H         14.07300        8.68100       -2.22400
C         13.54400        8.57900       -4.28900
O         13.40300        7.42700       -4.66900
N         13.93000        9.48900       -5.15400
H         14.04200        9.18700       -6.10500
H         14.00500       10.45200       -4.88100
C         10.55800       10.19900       -3.56400
O         10.62900       11.09700       -2.73400
N         10.44600       10.50000       -4.85300
H         10.42300        9.76700       -5.55000
H         10.35900       11.46700       -5.11300
