44
0 1
H         -3.60400        1.30600      -14.21200
C         -3.65500        0.44100      -14.87100
H         -4.26300        0.67000      -15.74400
H         -4.08800       -0.40100      -14.33300
C         -2.26000        0.07100      -15.31500
O         -1.79900       -1.03100      -15.04600
N         -1.58500        0.99500      -15.99700
H         -2.01500        1.89400      -16.13700
C         -0.18000        0.82800      -16.39700
H         -0.05400       -0.17700      -16.80200
C          0.21200        1.83800      -17.50300
H          0.00400        2.84600      -17.13500
C          1.71600        1.74800      -17.82800
H          1.96600        0.74900      -18.18900
H          1.98800        2.48100      -18.58600
H          2.31500        1.97100      -16.94500
C         -0.63500        1.59400      -18.77600
H         -0.39400        0.61300      -19.18900
H         -1.69200        1.59400      -18.51300
C         -0.45200        2.65200      -19.87300
H         -0.61200        3.64900      -19.46000
H          0.54600        2.59000      -20.30500
H         -1.18000        2.47700      -20.66500
C          0.71200        0.95100      -15.15300
O          0.68000        1.96800      -14.46200
N          1.52500       -0.07400      -14.88700
H          1.50800       -0.87000      -15.50900
C          2.41700       -0.17300      -13.72000
H          2.63700        0.83400      -13.36300
C          1.75800       -0.94900      -12.55700
H          2.49200       -1.02500      -11.75300
C          0.54300       -0.21000      -11.98300
H         -0.26700       -0.19100      -12.71200
H          0.19500       -0.71700      -11.08300
H          0.81700        0.81400      -11.73000
C          1.33200       -2.37500      -12.93400
H          2.18500       -2.93900      -13.31100
H          0.93900       -2.88500      -12.05500
H          0.55400       -2.34700      -13.69900
C          3.75200       -0.81500      -14.10800
O          3.85000       -1.54100      -15.09000
N          4.80800       -0.56500      -13.34500
H          5.68500       -0.98800      -13.60200
H          4.72600        0.03400      -12.54100
