42
0 1
H         13.74000        0.30000       -5.43800
C         14.56100        1.00200       -5.57000
H         14.17600        1.94900       -5.94600
H         15.28700        0.60100       -6.27700
C         15.24200        1.24200       -4.24600
O         15.36500        2.37900       -3.80900
N         15.71900        0.16900       -3.61100
H         15.58700       -0.73200       -4.04200
C         16.41000        0.22200       -2.30500
H         15.78400        0.81400       -1.63500
C         16.53600       -1.18900       -1.68000
H         17.14300       -1.10600       -0.77700
C         15.14400       -1.67000       -1.23300
H         15.23200       -2.61800       -0.70000
H         14.69900       -0.93900       -0.55600
H         14.48700       -1.80600       -2.09300
C         17.16500       -2.28600       -2.57200
H         17.14200       -3.22500       -2.01700
H         16.56700       -2.42500       -3.47300
C         18.62200       -2.04300       -2.98000
H         18.67900       -1.25800       -3.73200
H         19.21600       -1.76700       -2.10700
H         19.03100       -2.95700       -3.41200
C         17.75700        0.97200       -2.32800
O         18.34800        1.21400       -1.28200
N         18.23100        1.36900       -3.51100
H         17.68700        1.13100       -4.32900
C         19.38200        2.24500       -3.72400
H         20.13200        2.03800       -2.95700
C         19.97200        1.90400       -5.10200
H         20.87600        2.49000       -5.27100
H         20.24300        0.84900       -5.13400
C         18.97300        2.17800       -6.21100
O         18.10300        1.37300       -6.49900
N         19.02300        3.34000       -6.81500
H         18.32800        3.51700       -7.51600
H         19.66700        4.04400       -6.49000
C         19.04000        3.75100       -3.62200
O         19.88000        4.59300       -3.92300
N         17.81200        4.13000       -3.28700
H         17.60700        5.11300       -3.24300
H         17.09000        3.44000       -3.12800
