47
0 1
H         -0.16400       12.48700       -3.80800
C         -0.45000       13.03200       -2.90900
H         -0.55300       12.33500       -2.07900
H         -1.39100       13.54900       -3.08200
C          0.62500       14.04100       -2.58600
O          1.62100       14.13200       -3.29400
N          0.43400       14.79800       -1.50600
H         -0.40200       14.65000       -0.96500
C          1.38600       15.82100       -1.03900
H          1.81200       16.30500       -1.91900
C          0.66800       16.92400       -0.21900
H          0.34900       16.48900        0.73100
C          1.62600       18.09000        0.09800
H          1.08600       18.88600        0.61100
H          2.42800       17.75700        0.75600
H          2.06500       18.48700       -0.81700
C         -0.60600       17.47600       -0.90600
H         -1.34500       16.67900       -0.98500
H         -1.04300       18.24300       -0.26400
C         -0.40100       18.08300       -2.30300
H         -0.00400       17.33600       -2.98900
H         -1.36200       18.43100       -2.68500
H          0.27900       18.93300       -2.25400
C          2.56300       15.15500       -0.29900
O          2.68600       15.23400        0.92100
N          3.41900       14.45600       -1.04800
H          3.19500       14.38200       -2.03500
C          4.57600       13.67700       -0.56000
H          4.24900       13.15000        0.33700
C          4.97200       12.59600       -1.59800
H          5.82600       12.05000       -1.19300
C          3.83100       11.57300       -1.76100
H          2.98300       12.02400       -2.27700
H          4.17800       10.71500       -2.33600
H          3.50900       11.21700       -0.78300
C          5.39200       13.20700       -2.95600
H          4.52200       13.64000       -3.45100
H          6.11200       14.00700       -2.78500
C          6.04500       12.19600       -3.90700
H          6.39300       12.71600       -4.80000
H          6.89700       11.72300       -3.41900
H          5.32600       11.43500       -4.20700
C          5.77500       14.53700       -0.09600
O          6.93200       14.16800       -0.25600
N          5.53800       15.70900        0.47600
H          4.58500       15.97100        0.68200
H          6.32200       16.26300        0.77800
