44
0 1
H          1.80300        5.09600       -0.24100
C          1.06500        5.56800       -0.88700
H          0.47000        4.80200       -1.38200
H          1.56100        6.18400       -1.63400
C          0.15000        6.43300       -0.05300
O         -1.05400        6.20900       -0.02200
N          0.72100        7.42800        0.62600
H          1.71400        7.56300        0.53200
C         -0.03300        8.38300        1.45200
H         -0.80500        7.83400        1.99200
C          0.88200        9.05300        2.50800
H          1.61600        9.66600        1.98300
C          0.06700        9.98600        3.42400
H         -0.76100        9.44700        3.88600
H          0.70900       10.39600        4.20500
H         -0.33700       10.82100        2.85100
C          1.67700        8.03600        3.36400
H          2.36200        7.48500        2.71900
H          2.29300        8.58900        4.07500
C          0.83500        7.02000        4.15000
H          0.17400        7.53100        4.85000
H          0.24400        6.40700        3.46900
H          1.50000        6.36700        4.71600
C         -0.75500        9.39800        0.55100
O         -0.22800       10.46400        0.23500
N         -1.96000        9.04600        0.10000
H         -2.28800        8.11400        0.31800
C         -2.83200        9.93300       -0.68400
H         -2.23700       10.38500       -1.47800
C         -3.98000        9.14200       -1.34700
H         -4.55600        8.63000       -0.57500
C         -4.92900       10.05400       -2.13700
H         -5.69400        9.45200       -2.62800
H         -5.43200       10.74900       -1.46500
H         -4.37500       10.61200       -2.89200
C         -3.43200        8.09000       -2.32200
H         -2.83000        8.56900       -3.09400
H         -2.81900        7.36400       -1.78900
H         -4.25800        7.55400       -2.79000
C         -3.37200       11.05900        0.20600
O         -4.05800       10.81700        1.19100
N         -3.09300       12.30900       -0.13500
H         -2.48500       12.49500       -0.91400
H         -3.43700       13.04700        0.45500
