42
0 1
H          4.72100       -3.56300       -2.28600
C          3.70100       -3.89200       -2.47600
H          3.69900       -4.96100       -2.68500
H          3.29100       -3.34800       -3.32400
C          2.86100       -3.62400       -1.25100
O          3.35700       -3.09400       -0.26200
N          1.58000       -3.99400       -1.30600
H          1.27500       -4.48000       -2.13400
C          0.59300       -3.79200       -0.22400
H          0.82200       -2.83000        0.23700
C         -0.85800       -3.68600       -0.77500
H         -1.20800       -4.69000       -1.02300
C         -1.78700       -3.09000        0.30400
H         -2.82700       -3.16300       -0.01100
H         -1.70100       -3.63700        1.24200
H         -1.53500       -2.04400        0.48300
C         -0.93600       -2.82400       -2.06300
H         -0.53100       -1.83200       -1.85900
H         -0.32600       -3.28500       -2.84000
C         -2.34400       -2.66900       -2.65400
H         -2.80400       -3.64900       -2.78300
H         -2.96600       -2.05300       -2.00500
H         -2.27300       -2.17900       -3.62600
C          0.77300       -4.85600        0.88400
O         -0.14900       -5.57500        1.25800
N          2.01000       -5.00800        1.36000
H          2.71900       -4.40400        0.95700
C          2.45700       -6.09400        2.23700
H          1.64300       -6.33800        2.92400
C          2.74000       -7.34000        1.37100
H          3.02100       -8.17500        2.01200
H          1.83100       -7.62300        0.83900
C          3.83700       -7.11300        0.34700
O          3.59300       -6.87200       -0.82200
N          5.08100       -7.14800        0.76200
H          5.79600       -6.98600        0.07800
H          5.26700       -7.26600        1.74900
C          3.66400       -5.69200        3.11600
O          4.44000       -6.53800        3.55100
N          3.89100       -4.40400        3.34400
H          4.69500       -4.15000        3.89400
H          3.27500       -3.70700        2.95800
