45
0 1
H         11.14100       12.57900        4.64400
C         11.23800       11.61800        5.14400
H         10.32700       11.03900        4.99900
H         11.40800       11.76700        6.20900
C         12.40000       10.85800        4.55100
O         12.22100        9.76700        4.02600
N         13.60000       11.43200        4.64400
H         13.66000       12.32200        5.11100
C         14.85500       10.84500        4.14100
H         14.60800       10.36800        3.19200
C         15.87400       11.96800        3.80700
H         15.39300       12.61200        3.06900
C         16.21900       12.86900        5.01000
H         16.88400       13.67100        4.68900
H         15.32200       13.32100        5.42800
H         16.72400       12.29500        5.78800
C         17.18900       11.46900        3.16300
H         17.79000       12.33900        2.89200
H         17.76700       10.88400        3.87700
C         16.98100       10.63600        1.89200
H         16.50200        9.68700        2.13400
H         16.36700       11.18800        1.18000
H         17.95000       10.42700        1.43700
C         15.36600        9.70400        5.05100
O         16.40800        9.79300        5.69500
N         14.58900        8.62100        5.13100
H         13.71800        8.64500        4.60900
C         14.85600        7.43500        5.95400
H         15.22300        7.78100        6.92100
C         13.52700        6.69500        6.20000
H         12.78100        7.41000        6.55100
H         13.17100        6.27200        5.25900
C         13.63400        5.57100        7.23900
H         12.67300        5.05800        7.28200
H         14.37900        4.84500        6.91700
S         14.04900        6.13000        8.91500
C         14.12500        4.52600        9.75400
H         13.15800        4.02700        9.68000
H         14.89100        3.90600        9.28900
H         14.37200        4.67800       10.80500
C         15.96400        6.54300        5.35300
O         15.73300        5.42600        4.90300
N         17.19000        7.04200        5.29100
H         17.35300        7.98800        5.61100
H         17.92000        6.48100        4.88600
