39
0 1
H          2.60700        8.16600       -0.29500
C          3.02800        7.56100        0.50600
H          3.02800        6.51000        0.22100
H          2.43400        7.69200        1.41000
C          4.44300        8.00700        0.78400
O          4.74500        8.44600        1.88400
N          5.30900        7.90900       -0.22600
H          4.97500        7.52400       -1.09500
C          6.74200        8.25900       -0.12200
H          7.17400        7.69900        0.70800
C          7.47600        7.83700       -1.42300
H          6.95200        8.28700       -2.26800
C          8.93600        8.33100       -1.46100
H          9.48600        7.93900       -0.60400
H          9.42800        8.01600       -2.37900
H          8.97400        9.42000       -1.43700
C          7.43400        6.29600       -1.58300
H          8.04600        5.83400       -0.80700
H          6.41200        5.94200       -1.45200
C          7.90100        5.78700       -2.95400
H          7.35300        6.29500       -3.74800
H          8.97000        5.95100       -3.08300
H          7.71000        4.71500       -3.02200
C          6.94700        9.75100        0.21200
O          7.90200       10.11100        0.89500
N          6.03000       10.62300       -0.21900
H          5.24100       10.26300       -0.73300
C          5.98900       12.05400        0.11300
H          7.00700       12.44300        0.08700
C          5.17600       12.78400       -0.96400
H          5.18500       13.85800       -0.77000
H          5.62400       12.60200       -1.94200
O          3.84300       12.31000       -0.96500
H          3.43400       12.64500       -0.15400
C          5.43700       12.32500        1.52800
O          4.58300       13.18700        1.71800
N          5.85800       11.57000        2.53200
H          6.54300       10.84700        2.35800
H          5.46200       11.71000        3.44600
