47
0 1
H          7.13500        5.31100        4.69500
C          6.21600        4.88800        4.29600
H          5.77700        4.21000        5.02600
H          6.42400        4.34900        3.37300
C          5.23600        6.00200        4.01300
O          4.15200        6.02900        4.58100
N          5.62000        6.92200        3.12900
H          6.51800        6.81800        2.68000
C          4.80800        8.07400        2.71200
H          3.76300        7.76000        2.71300
C          4.96000        9.23200        3.73200
H          4.80100        8.80900        4.72500
C          6.37200        9.85000        3.70600
H          7.12700        9.07100        3.81300
H          6.53900       10.38000        2.76700
H          6.49100       10.55000        4.53200
C          3.88000       10.31500        3.51800
H          4.11300       10.90700        2.63300
H          2.91800        9.82600        3.35800
C          3.72000       11.26600        4.71100
H          3.50900       10.69600        5.61600
H          4.62500       11.85600        4.85200
H          2.88900       11.94600        4.51900
C          5.16700        8.48500        1.27500
O          6.27100        8.21100        0.80200
N          4.23700        9.13300        0.56900
H          3.36700        9.35800        1.02100
C          4.50000        9.73600       -0.74500
H          5.02600        8.99000       -1.34200
C          3.17000       10.05300       -1.47000
H          2.60200        9.12200       -1.51500
C          2.31000       11.09000       -0.72000
H          1.33300       11.18300       -1.19300
H          2.15200       10.78500        0.31400
H          2.79900       12.06500       -0.72500
C          3.44200       10.50500       -2.92200
H          3.87300       11.50800       -2.92400
H          4.16600        9.82400       -3.37100
C          2.19500       10.50300       -3.81500
H          2.48600       10.73900       -4.83900
H          1.72500        9.51900       -3.79900
H          1.48100       11.25400       -3.47700
C          5.43100       10.95600       -0.61400
O          5.28400       11.78000        0.28100
N          6.39600       11.10500       -1.51100
H          7.01100       11.89500       -1.41400
H          6.53700       10.41100       -2.22600
