42
0 1
H         -1.59800       16.87200        6.21300
C         -1.22500       17.60200        5.49600
H         -0.22500       17.91900        5.78900
H         -1.89500       18.45900        5.46400
C         -1.16100       16.95900        4.13200
O         -1.43700       15.77400        3.99400
N         -0.76600       17.73400        3.12100
H         -0.55100       18.69700        3.32400
C         -0.62700       17.26900        1.72500
H         -1.58700       16.84100        1.43600
C         -0.34100       18.48400        0.80800
H         -1.11600       19.22900        1.00000
C          1.01800       19.14000        1.12400
H          1.07800       19.42600        2.17400
H          1.83500       18.45600        0.89200
H          1.14000       20.04100        0.52100
C         -0.37800       18.16900       -0.70400
H         -0.18000       19.09000       -1.25500
H          0.40700       17.45700       -0.96100
C         -1.72700       17.62300       -1.19000
H         -1.70900       17.53700       -2.27600
H         -1.91200       16.63600       -0.76800
H         -2.53000       18.30200       -0.90100
C          0.41500       16.14300        1.56100
O          0.36100       15.37000        0.61100
N          1.33900       16.01600        2.51500
H          1.30700       16.67700        3.27900
C          2.31200       14.92800        2.62900
H          2.70200       14.70400        1.63400
C          3.46400       15.43800        3.51200
H          4.25000       14.68500        3.56500
H          3.89100       16.34000        3.07400
C          2.97600       15.76500        4.91100
O          2.45600       16.83800        5.16900
N          3.06200       14.83300        5.82800
H          2.69600       15.05200        6.73600
H          3.36900       13.90800        5.56800
C          1.72600       13.60700        3.18600
O          2.48000       12.70100        3.52900
N          0.41800       13.48300        3.37000
H          0.06400       12.62100        3.74800
H         -0.20400       14.25300        3.16400
