45
0 1
H          5.62200       10.86000       -2.18700
C          5.99100        9.98100       -1.65900
H          6.30400       10.26700       -0.65700
H          6.83000        9.55500       -2.20600
C          4.88000        8.96300       -1.57100
O          3.78500        9.20300       -2.05900
N          5.15700        7.82800       -0.92900
H          6.08700        7.72100       -0.55600
C          4.23000        6.68000       -0.81800
H          3.94000        6.37300       -1.82400
C          4.96900        5.49100       -0.14500
H          5.39400        5.84900        0.79500
C          4.03000        4.31500        0.18800
H          3.26900        4.62200        0.90500
H          3.53700        3.96100       -0.71900
H          4.58100        3.49300        0.64100
C          6.12600        5.00000       -1.05200
H          5.71200        4.52200       -1.94100
H          6.72000        5.85100       -1.38300
C          7.09900        4.02800       -0.36900
H          7.94500        3.84400       -1.03200
H          7.46700        4.46100        0.56200
H          6.61200        3.07500       -0.16400
C          2.91900        7.04800       -0.08900
O          1.87600        6.45700       -0.35000
N          2.95600        8.04900        0.79400
H          3.83900        8.52000        0.92500
C          1.79200        8.60700        1.49400
H          1.13600        7.77900        1.76600
C          2.25800        9.28000        2.80000
H          1.37400        9.60700        3.34800
H          2.76600        8.54300        3.42200
C          3.17300       10.50200        2.60200
H          2.72100       11.16300        1.86200
H          3.20600       11.05200        3.54300
S          4.89300       10.16900        2.10000
C          5.55100        9.42900        3.62000
H          5.03400        8.49400        3.83500
H          6.61500        9.22800        3.49300
H          5.41500       10.12000        4.45200
C          0.93200        9.56500        0.63900
O         -0.02700       10.13900        1.13900
N          1.25100        9.79400       -0.62900
H          2.04900        9.33900       -1.05300
H          0.67000       10.41700       -1.16300
