47
0 1
H          7.24300       12.09100        3.57200
C          6.43600       12.66500        4.02400
H          6.38700       13.65600        3.57400
H          6.61300       12.76300        5.09400
C          5.12300       11.95300        3.80700
O          4.45800       11.58200        4.76500
N          4.76700       11.72600        2.54200
H          5.38500       12.05900        1.82000
C          3.46600       11.16900        2.10900
H          2.68800       11.78300        2.56500
C          3.30700       11.29700        0.57500
H          2.29900       10.96100        0.32400
C          3.40500       12.77400        0.14400
H          3.07000       12.88300       -0.88700
H          2.75600       13.38500        0.77300
H          4.43000       13.13600        0.22300
C          4.30500       10.39800       -0.19300
H          5.32500       10.73500       -0.00500
H          4.21600        9.37300        0.16800
C          4.07000       10.36700       -1.70900
H          4.74100        9.63700       -2.16200
H          3.03900       10.07900       -1.91900
H          4.27300       11.34400       -2.14600
C          3.16400        9.72900        2.57900
O          2.09100        9.21000        2.29300
N          4.08800        9.08400        3.29800
H          4.92000        9.59900        3.53400
C          3.86900        7.80200        3.98900
H          3.28800        7.16100        3.32500
C          5.23900        7.12200        4.22900
H          5.76400        7.12000        3.27100
C          6.10800        7.90100        5.23900
H          6.19800        8.94700        4.94700
H          5.66700        7.84800        6.23500
H          7.10900        7.47500        5.27800
C          5.07200        5.64900        4.66400
H          4.74200        5.60200        5.70200
H          4.30400        5.18500        4.04300
C          6.35200        4.81600        4.51600
H          7.12400        5.18000        5.19300
H          6.13400        3.77700        4.76400
H          6.71300        4.86600        3.48800
C          3.04200        7.95500        5.28400
O          2.51400        6.98300        5.80800
N          2.89900        9.16000        5.82700
H          2.34100        9.24300        6.65800
H          3.33800        9.96600        5.40400
