45
0 1
H         11.48100       10.36300       -1.65600
C         11.56700        9.29800       -1.45100
H         11.68700        9.14100       -0.38000
H         12.42400        8.88400       -1.97900
C         10.31000        8.59700       -1.90900
O          9.62200        7.98500       -1.10500
N         10.02300        8.68700       -3.20700
H         10.67900        9.16900       -3.80300
C          8.87200        8.05900       -3.87700
H          8.49500        7.24800       -3.25300
C          7.73100        9.09000       -4.09200
H          8.16200        9.94400       -4.61700
C          6.59700        8.54900       -4.98600
H          6.23000        7.59500       -4.60500
H          5.77200        9.26200       -5.01200
H          6.94800        8.41300       -6.00800
C          7.13100        9.63200       -2.77200
H          7.92700       10.06000       -2.16300
H          6.45000       10.44900       -3.01400
C          6.36000        8.61400       -1.91800
H          5.47800        8.25900       -2.45100
H          6.99400        7.76600       -1.66200
H          6.03500        9.09500       -0.99500
C          9.34800        7.43700       -5.19700
O         10.22400        7.98300       -5.86600
N          8.75300        6.30900       -5.59000
H          8.00900        5.94400       -5.00500
C          9.03800        5.52500       -6.80400
H         10.11900        5.41000       -6.89000
C          8.42100        4.12900       -6.60500
H          8.61500        3.51000       -7.48200
H          8.90500        3.64900       -5.75400
C          6.93500        4.17100       -6.33800
N          6.34700        4.54900       -5.12700
C          5.02300        4.50700       -5.33500
H          4.27800        4.74200       -4.58500
N          4.75600        4.14300       -6.60100
H          3.83400        4.05400       -7.00500
C          5.95200        3.93400       -7.25200
H          6.10400        3.67200       -8.29100
C          8.57400        6.18500       -8.12400
O          8.12600        5.51800       -9.05000
N          8.64900        7.50200       -8.24600
H          9.08300        8.04100       -7.50900
H          8.34700        7.92400       -9.10700
