39
0 1
H         12.53500        0.45700       -0.19600
C         11.48000        0.33200        0.04400
H         11.28900       -0.70300        0.32100
H         10.87400        0.60700       -0.81700
C         11.13400        1.23300        1.20600
O         11.99400        1.94200        1.71200
N          9.87100        1.19500        1.62900
H          9.24300        0.54200        1.18600
C          9.32600        1.97800        2.75000
H         10.16200        2.26500        3.39000
C          8.64100        3.29100        2.28500
H          8.48000        3.87500        3.19300
C          9.55800        4.15300        1.40100
H          9.09300        5.12100        1.21300
H         10.51000        4.31700        1.90900
H          9.75500        3.66500        0.44700
C          7.23600        3.13400        1.65100
H          6.56100        2.69000        2.38200
H          6.85000        4.13100        1.43600
C          7.15100        2.31000        0.35800
H          7.40700        1.26900        0.55200
H          6.12900        2.34600       -0.02000
H          7.81700        2.71800       -0.40100
C          8.38500        1.12200        3.60800
O          7.82200        0.13600        3.13400
N          8.18400        1.51500        4.86700
H          8.65600        2.34700        5.19000
C          7.32000        0.84100        5.84400
H          7.48000       -0.23400        5.75400
C          7.77800        1.26900        7.25000
H          7.15700        0.77900        8.00300
H          8.81600        0.96600        7.40300
S          7.64500        3.07200        7.43900
H          6.30200        3.09800        7.42200
C          5.80700        1.07000        5.60000
O          5.06200        1.44500        6.49900
N          5.32400        0.88300        4.38000
H          4.34200        1.03700        4.22100
H          5.93900        0.55400        3.64700
