49
0 1
H          9.96200        9.38400        1.17300
C          9.87600        8.32500        0.93500
H          9.11100        7.86500        1.55800
H         10.83200        7.83400        1.10600
C          9.49600        8.17600       -0.51900
O         10.27600        7.64000       -1.29900
N          8.31000        8.67200       -0.86900
H          7.78800        9.17400       -0.16700
C          7.75200        8.70000       -2.23200
H          8.56600        8.50600       -2.93200
C          6.68900        7.59300       -2.44700
H          6.39400        7.62400       -3.49800
C          7.30800        6.20400       -2.21900
H          7.53600        6.05500       -1.16300
H          6.61300        5.42900       -2.54300
H          8.22900        6.10700       -2.79600
C          5.40900        7.74400       -1.58800
H          4.98400        6.75600       -1.40900
H          5.65400        8.17400       -0.61700
C          4.30500        8.58000       -2.25200
H          4.05200        8.15800       -3.22500
H          3.41700        8.56500       -1.62000
H          4.62100        9.61400       -2.37700
C          7.22600       10.10300       -2.56300
O          6.95100       10.89600       -1.66200
N          7.10700       10.42000       -3.85600
H          7.26100        9.70200       -4.54600
C          7.02700       11.80200       -4.35000
H          6.68300       12.44400       -3.53700
C          8.43200       12.28300       -4.77400
H          8.62900       11.93400       -5.78900
H          8.44300       13.37300       -4.79700
C          9.55400       11.78900       -3.87500
C          9.78000       12.39300       -2.62300
H          9.21500       13.26700       -2.33300
C         10.68700       11.81300       -1.71500
H         10.84000       12.24400       -0.73700
C         11.35800       10.62000       -2.05500
O         12.13400        9.98900       -1.13900
H         12.05300        9.03400       -1.24800
C         11.15700       10.03400       -3.32200
H         11.66400        9.11500       -3.57200
C         10.26500       10.62600       -4.23500
H         10.08500       10.15300       -5.19000
C          6.02800       11.93700       -5.50700
O          5.80000       10.99700       -6.26100
N          5.43900       13.11100       -5.69100
H          5.63200       13.88000       -5.07200
H          4.79000       13.19900       -6.45600
