47
0 1
H          2.58100       11.11800       -2.34800
C          2.94100       11.10000       -1.32100
H          2.24000       11.63000       -0.67800
H          3.92000       11.57300       -1.26200
C          3.04800        9.66800       -0.85400
O          2.39700        9.28700        0.10900
N          3.88000        8.88300       -1.53600
H          4.41800        9.29600       -2.28300
C          4.14500        7.46500       -1.24300
H          3.77400        7.23000       -0.24600
C          3.41900        6.55300       -2.26600
H          3.73000        6.87100       -3.26300
C          3.82600        5.07300       -2.12700
H          3.22100        4.45800       -2.79300
H          4.87000        4.93700       -2.41100
H          3.68800        4.72900       -1.10200
C          1.87700        6.67900       -2.21800
H          1.59600        7.72100       -2.37200
H          1.46000        6.11600       -3.05300
C          1.20200        6.18000       -0.93100
H          0.12900        6.36200       -0.99700
H          1.36500        5.11000       -0.80500
H          1.59000        6.71100       -0.06200
C          5.66100        7.23200       -1.23700
O          6.37800        7.77300       -2.07900
N          6.15400        6.42700       -0.29300
H          5.51000        5.98400        0.34200
C          7.57000        6.04000       -0.22100
H          8.18000        6.92000       -0.42400
C          7.92500        5.52200        1.19300
H          7.32400        4.63000        1.38400
C          9.40300        5.10000        1.27800
H          9.64900        4.81200        2.30100
H          9.58600        4.23700        0.63600
H         10.05500        5.91800        0.97100
C          7.59200        6.53600        2.31500
H          6.51500        6.70600        2.33500
H          7.85700        6.09000        3.27500
C          8.29200        7.89900        2.21200
H          9.37400        7.77600        2.23500
H          8.00000        8.40900        1.29400
H          7.99500        8.51800        3.06000
C          7.88100        4.99800       -1.30500
O          7.26000        3.94300       -1.36400
N          8.85800        5.25900       -2.16100
H          9.05600        4.57900       -2.87600
H          9.33400        6.14500       -2.13000
