42
0 1
H          6.39700        7.59700       -6.47600
C          6.82300        6.71600       -5.99900
H          7.56100        7.02700       -5.26000
H          7.30000        6.08400       -6.74600
C          5.72800        5.94400       -5.30400
O          5.77700        5.75400       -4.09700
N          4.75300        5.46200       -6.07500
H          4.80000        5.65600       -7.06200
C          3.52700        4.80100       -5.57500
H          3.09300        5.46800       -4.82900
C          2.48100        4.65700       -6.71100
H          1.62800        4.10000       -6.32100
C          1.95300        6.05000       -7.09900
H          1.14100        5.94800       -7.82000
H          1.56100        6.55700       -6.21700
H          2.74300        6.65700       -7.54000
C          2.96400        3.94200       -7.99600
H          2.14300        3.94900       -8.71400
H          3.79200        4.49400       -8.44200
C          3.38900        2.48200       -7.81100
H          3.52700        2.02100       -8.78900
H          4.33400        2.42700       -7.27300
H          2.62000        1.93300       -7.26600
C          3.73800        3.47500       -4.81200
O          2.77300        2.88400       -4.34100
N          4.98200        3.01300       -4.65800
H          5.72800        3.58900       -5.01300
C          5.34900        1.87400       -3.79700
H          4.52400        1.16000       -3.80800
C          6.57800        1.14700       -4.37000
H          6.38200        0.90400       -5.41500
C          7.87200        1.96100       -4.29700
H          8.13600        2.17100       -3.26000
H          8.67900        1.38800       -4.75400
H          7.75900        2.89900       -4.83900
O          6.79900       -0.05400       -3.67500
H          6.70300        0.13800       -2.73000
C          5.56800        2.26300       -2.32400
O          5.85800        1.40500       -1.49800
N          5.48300        3.53800       -1.96100
H          5.30100        4.25600       -2.64800
H          5.63100        3.77000       -0.99300
