45
0 1
H          2.25200        5.45300       -0.96500
C          1.96300        6.50200       -0.91700
H          0.88000        6.58300       -0.85300
H          2.31300        7.01700       -1.81000
C          2.58500        7.14300        0.30100
O          3.33700        8.10000        0.17100
N          2.26700        6.61000        1.48100
H          1.68500        5.78800        1.46500
C          2.59500        7.19200        2.80000
H          2.21800        8.21500        2.82000
C          1.87100        6.38200        3.90800
H          2.27000        5.36700        3.88700
C          2.13500        6.93700        5.32000
H          3.18000        6.78800        5.59500
H          1.91500        8.00500        5.35700
H          1.52000        6.41600        6.05300
C          0.34200        6.26600        3.68200
H          0.15200        5.71200        2.76200
H         -0.08600        5.67400        4.49200
C         -0.42200        7.59700        3.60800
H         -1.48400        7.39200        3.46900
H         -0.29500        8.16100        4.53200
H         -0.07000        8.19100        2.76500
C          4.11100        7.29900        3.07100
O          4.54300        8.15100        3.84400
N          4.93200        6.47500        2.41400
H          4.50200        5.84000        1.75200
C          6.40500        6.50500        2.45600
H          6.68700        6.65100        3.50000
C          6.95800        5.11800        2.03700
H          7.99800        5.05400        2.35900
H          6.40800        4.36000        2.59700
C          6.90400        4.73700        0.54100
H          7.78500        5.13300        0.03600
H          6.94200        3.65100        0.44800
C          5.65500        5.24600       -0.16400
O          4.56100        4.73800        0.02300
N          5.74900        6.33700       -0.89100
H          6.62700        6.83700       -0.90200
H          4.89000        6.77600       -1.17700
C          7.01700        7.70300        1.68400
O          7.91000        7.55300        0.85400
N          6.51800        8.91300        1.89000
H          5.76800        9.03000        2.55900
H          6.88500        9.68800        1.36600
