42
0 1
H          6.53600        1.84700        1.66400
C          6.55500        1.28000        0.73500
H          6.45800        0.21700        0.94600
H          7.49300        1.46500        0.21300
C          5.41000        1.72200       -0.14600
O          5.63200        2.19400       -1.25200
N          4.18400        1.56700        0.35000
H          4.08500        1.19100        1.28100
C          2.94500        1.95400       -0.34100
H          3.15300        2.86400       -0.90800
C          2.52400        0.85400       -1.35000
H          3.39000        0.64900       -1.98300
C          2.13200       -0.46300       -0.65000
H          1.21600       -0.33500       -0.07300
H          1.97800       -1.24800       -1.39000
H          2.93100       -0.78600        0.01700
C          1.38600        1.34400       -2.27400
H          0.44200        1.36400       -1.72900
H          1.61200        2.36000       -2.60200
C          1.20400        0.48700       -3.53300
H          0.87800       -0.51800       -3.26700
H          0.44500        0.94100       -4.17000
H          2.14300        0.43200       -4.08600
C          1.84600        2.28600        0.68000
O          1.85900        1.78100        1.80200
N          0.88200        3.12400        0.29400
H          0.93600        3.49400       -0.64800
C         -0.26100        3.57100        1.10300
H          0.11700        3.85700        2.08600
C         -0.83800        4.83200        0.43000
H         -1.69500        5.20000        0.99400
H         -0.08100        5.61700        0.42500
C         -1.25000        4.56900       -1.00700
O         -0.45500        4.68000       -1.92300
N         -2.46600        4.14200       -1.24000
H         -2.70800        3.94600       -2.19300
H         -3.04800        3.88200       -0.45400
C         -1.34000        2.48400        1.35900
O         -2.53800        2.74900        1.29000
N         -0.95700        1.24300        1.62000
H         -1.66200        0.54200        1.77900
H          0.02800        1.04100        1.72400
