42
0 1
H         -8.32900        2.05500       -4.08900
C         -7.96900        1.41200       -4.89100
H         -7.42000        2.00900       -5.61700
H         -8.81200        0.92000       -5.37200
C         -7.04500        0.37100       -4.30500
O         -6.81400        0.35800       -3.10300
N         -6.52100       -0.50900       -5.15600
H         -6.73100       -0.41000       -6.13500
C         -5.51300       -1.50400       -4.75700
H         -5.83300       -1.90600       -3.79700
C         -5.45500       -2.68600       -5.75500
H         -4.71900       -3.39400       -5.37100
C         -6.81100       -3.41400       -5.77600
H         -7.13600       -3.62500       -4.75700
H         -7.56700       -2.80300       -6.27100
H         -6.72100       -4.36400       -6.30300
C         -4.99300       -2.26600       -7.17100
H         -5.71000       -1.56600       -7.60100
H         -4.03000       -1.76200       -7.09900
C         -4.81400       -3.44100       -8.14100
H         -4.14300       -4.18300       -7.70700
H         -5.77600       -3.90200       -8.36400
H         -4.38100       -3.07500       -9.07200
C         -4.12900       -0.84800       -4.55300
O         -3.79400        0.09200       -5.27900
N         -3.29400       -1.34200       -3.61600
C         -3.60500       -2.39300       -2.65400
H         -3.93800       -3.30500       -3.15000
H         -4.37500       -2.03600       -1.96700
C         -2.31500       -2.66100       -1.87900
H         -1.72900       -3.42700       -2.39000
H         -2.51600       -2.95400       -0.84800
C         -1.59300       -1.31700       -1.95700
H         -0.51900       -1.41600       -1.79600
H         -2.01800       -0.63600       -1.21800
C         -1.94600       -0.82100       -3.36600
H         -1.96800        0.26900       -3.35800
C         -0.94600       -1.26900       -4.45300
O         -0.06200       -2.08800       -4.22800
N         -1.08400       -0.76200       -5.66900
H         -1.85100       -0.12900       -5.85500
H         -0.44100       -1.05000       -6.38700
