45
0 1
H          2.98000        7.44800        4.68100
C          2.79700        8.20000        3.91300
H          3.60900        8.92500        3.91500
H          1.85100        8.69900        4.11600
C          2.72600        7.51900        2.56800
O          2.87400        6.30900        2.48300
N          2.53100        8.30400        1.50900
H          2.42000        9.29100        1.67700
C          2.31200        7.81900        0.13000
H          1.45300        7.14900        0.16600
C          1.93300        9.02800       -0.76700
H          1.08900        9.53200       -0.29400
C          3.08000       10.05300       -0.86400
H          2.75600       10.91300       -1.45300
H          3.36900       10.41200        0.12300
H          3.94700        9.60800       -1.35200
C          1.49300        8.66500       -2.20300
H          1.23000        9.58500       -2.72700
H          2.31600        8.20300       -2.74800
C          0.27000        7.74100       -2.25700
H          0.51600        6.75900       -1.85200
H         -0.55200        8.17600       -1.68900
H         -0.04200        7.61800       -3.29500
C          3.47200        6.98300       -0.45500
O          3.26700        6.22600       -1.39700
N          4.68100        7.08900        0.10600
H          4.76600        7.69600        0.90400
C          5.85200        6.27700       -0.26800
H          5.75600        5.97300       -1.30900
C          7.13200        7.12400       -0.15000
H          7.24900        7.42700        0.89100
H          7.99600        6.51500       -0.41900
C          7.15000        8.38700       -1.02700
H          6.24600        8.97300       -0.86500
H          7.99000        8.99300       -0.68700
S          7.38900        8.12600       -2.81100
C          5.68800        7.96400       -3.42500
H          5.12200        8.86300       -3.18500
H          5.71100        7.83900       -4.50800
H          5.20100        7.09600       -2.98600
C          5.97700        4.95800        0.52500
O          6.96200        4.24300        0.39200
N          5.02200        4.60700        1.37700
H          4.20700        5.19100        1.51200
H          5.12400        3.73900        1.87500
