52
0 1
H          7.94700        7.13200       -4.49500
C          7.01300        6.57900       -4.58400
H          7.06700        5.67300       -3.98500
H          6.83500        6.32800       -5.62800
C          5.88300        7.44400       -4.07700
O          6.11000        8.57100       -3.65400
N          4.66000        6.91900       -4.12100
H          4.55700        5.97000       -4.44200
C          3.47900        7.60400       -3.57800
H          3.52200        8.65100       -3.88200
C          2.16800        7.00800       -4.14600
H          2.14300        5.94200       -3.91100
C          0.93800        7.67400       -3.49600
H          0.93700        7.51700       -2.41800
H          0.93400        8.74500       -3.70400
H          0.01800        7.23300       -3.88000
C          2.12400        7.17700       -5.68500
H          2.09900        8.23900       -5.93300
H          3.03000        6.75500       -6.12100
C          0.94000        6.48000       -6.36800
H          0.90000        5.43200       -6.06800
H          0.00300        6.97200       -6.11000
H          1.06800        6.53300       -7.45000
C          3.52800        7.55700       -2.04400
O          3.54900        6.48300       -1.44500
N          3.50800        8.72900       -1.41200
H          3.48500        9.55900       -1.98600
C          3.59700        8.95700        0.03900
H          4.36300        8.29300        0.44000
C          4.07100       10.40500        0.25500
H          4.09300       10.62700        1.32300
H          5.09700       10.48400       -0.10600
C          3.25700       11.44800       -0.45500
C          2.20900       12.11600        0.07500
H          1.85100       11.98500        1.09200
N          1.64900       12.94000       -0.88200
H          0.84800       13.52700       -0.70700
C          2.29500       12.82000       -2.09400
C          2.08500       13.40100       -3.35400
H          1.28100       14.10500       -3.50300
C          2.93700       13.05300       -4.41700
H          2.79300       13.49200       -5.39400
C          3.98400       12.13700       -4.20600
H          4.64400       11.87800       -5.02300
C          4.18800       11.56200       -2.93600
H          5.00900       10.87200       -2.79100
C          3.34500       11.88400       -1.84800
C          2.29600        8.62200        0.80700
O          1.85900        9.34800        1.69400
N          1.63200        7.52400        0.47500
H          2.02400        6.90300       -0.22000
H          0.78700        7.30400        0.97400
