45
0 1
H          6.71700        0.72800        7.19900
C          7.76400        0.85000        6.93000
H          7.83900        1.22200        5.90900
H          8.28300       -0.10300        7.01100
C          8.40600        1.85000        7.86300
O          8.89600        2.87900        7.42000
N          8.40500        1.54200        9.15900
H          8.00300        0.66100        9.44600
C          8.98800        2.37900       10.21700
H          9.86400        2.87100        9.79400
C          7.97100        3.46900       10.64700
H          7.58700        3.94200        9.74100
C          6.76000        2.87800       11.39200
H          6.01500        3.65700       11.55900
H          6.29900        2.09000       10.79600
H          7.06100        2.46700       12.35600
C          8.58100        4.59000       11.51600
H          7.77800        5.24300       11.86000
H          9.06400        4.17000       12.39800
C          9.58000        5.46700       10.75000
H          9.09800        5.90100        9.87400
H          9.92300        6.27300       11.40000
H         10.44400        4.88300       10.43400
C          9.46900        1.49600       11.37900
O          8.89700        0.43700       11.63100
N         10.51100        1.92000       12.10000
H         10.91200        2.82000       11.87100
C         11.13500        1.18000       13.21100
H         11.18000        0.13200       12.90900
C         12.59300        1.64700       13.39800
H         13.06900        0.98700       14.12500
H         13.13100        1.52400       12.45800
C         12.76600        3.09400       13.89500
H         12.15200        3.23800       14.78400
H         13.80400        3.22200       14.20100
S         12.37300        4.42000       12.71500
C         13.72200        4.23500       11.51700
H         13.65700        3.26500       11.02600
H         13.64500        5.02000       10.76400
H         14.68100        4.32300       12.02800
C         10.32000        1.18800       14.52800
O         10.87500        1.17300       15.61900
N          8.99700        1.22900       14.46600
H          8.54200        1.15000       13.56800
H          8.47700        1.23300       15.32800
