44
0 1
H        -10.49700        1.40300       -3.28000
C         -9.96000        0.49700       -3.00500
H        -10.43800       -0.37100       -3.45700
H         -9.96000        0.38800       -1.92100
C         -8.53300        0.59200       -3.48800
O         -7.60800        0.55400       -2.68800
N         -8.35300        0.73200       -4.80100
H         -9.17300        0.77100       -5.38400
C         -7.04200        0.84400       -5.46800
H         -6.37100        0.15700       -4.95000
C         -7.14800        0.31900       -6.92400
H         -7.55100       -0.69300       -6.84900
C         -8.12500        1.12300       -7.80700
H         -7.73200        2.12100       -8.00300
H         -8.26900        0.61600       -8.76100
H         -9.09700        1.21300       -7.32600
C         -5.75300        0.19400       -7.58100
H         -5.38600        1.17700       -7.87800
H         -5.05600       -0.22000       -6.85100
C         -5.73400       -0.72500       -8.80900
H         -6.34100       -0.30300       -9.61000
H         -4.70900       -0.82500       -9.16700
H         -6.11400       -1.71200       -8.54400
C         -6.40500        2.24200       -5.28700
O         -6.14200        2.97300       -6.24000
N         -6.18400        2.64100       -4.03100
H         -6.44100        1.99500       -3.29000
C         -5.59600        3.93700       -3.64400
H         -6.00600        4.70100       -4.30400
C         -5.99400        4.32800       -2.20100
H         -5.53500        3.63600       -1.49500
C         -5.55300        5.76000       -1.85700
H         -5.86100        6.00700       -0.84200
H         -4.46800        5.84600       -1.90600
H         -6.00100        6.47000       -2.55200
C         -7.51800        4.27600       -2.00000
H         -7.87700        3.25300       -2.10200
H         -7.77100        4.61800       -0.99600
H         -8.01600        4.91100       -2.73300
C         -4.07400        3.92800       -3.86500
O         -3.27600        3.82500       -2.94200
N         -3.64100        3.98600       -5.11600
H         -2.65000        3.95800       -5.28500
H         -4.31500        3.97800       -5.87000
