42
0 1
H          3.96900        7.84200       -7.51000
C          4.06300        7.13000       -8.32800
H          3.71000        7.58900       -9.25100
H          3.47300        6.23900       -8.11800
C          5.51300        6.74600       -8.49600
O          6.08400        6.94700       -9.55800
N          6.10300        6.16700       -7.44900
H          5.55400        6.04400       -6.61400
C          7.53300        5.79100       -7.39900
H          8.13100        6.68300       -7.59400
C          7.87900        5.28100       -5.97300
H          7.17200        4.48900       -5.71900
C          9.29700        4.68600       -5.88100
H          9.51500        4.35300       -4.86800
H          9.39200        3.81500       -6.52900
H         10.03600        5.43100       -6.18100
C          7.72000        6.42900       -4.94400
H          8.50200        7.17300       -5.10700
H          6.76000        6.92300       -5.08900
C          7.76200        5.97700       -3.47700
H          8.75800        5.62900       -3.20800
H          7.51000        6.82100       -2.83500
H          7.03700        5.17900       -3.31200
C          7.91200        4.77400       -8.49600
O          9.04600        4.76000       -8.96400
N          6.96300        3.94900       -8.94500
H          6.03900        4.02400       -8.55000
C          7.13200        2.98500      -10.04700
H          8.13500        2.56100       -9.98500
C          6.12300        1.83300       -9.90300
H          6.25700        1.12600      -10.72300
C          6.28500        1.07100       -8.58800
H          5.60000        0.22300       -8.57900
H          7.30700        0.70000       -8.50200
H          6.06000        1.71600       -7.73900
O          4.80800        2.34200       -9.94100
H          4.59400        2.50000      -10.86600
C          7.01600        3.61000      -11.44800
O          6.93500        2.89000      -12.43600
N          6.95000        4.92800      -11.58700
H          6.97700        5.53400      -10.77700
H          6.87500        5.31100      -12.51400
