52
0 1
H          4.21200        4.35500        7.07600
C          4.05500        5.33500        6.62900
H          4.81700        6.02400        6.99100
H          3.06900        5.71000        6.89300
C          4.17100        5.22200        5.12800
O          5.02400        5.86300        4.52900
N          3.29500        4.42300        4.51700
H          2.60300        3.96200        5.08700
C          3.33200        4.08200        3.07900
H          4.30600        3.63300        2.88700
C          2.24400        3.01900        2.78500
H          2.39300        2.19500        3.48500
C          0.82100        3.56600        3.01700
H          0.09100        2.76900        2.87400
H          0.71100        3.94300        4.03300
H          0.60000        4.36900        2.31300
C          2.29700        2.42000        1.36100
H          1.50100        1.67900        1.26800
H          2.11100        3.19500        0.61800
C          3.62100        1.71800        1.03600
H          4.43400        2.44200        0.99000
H          3.84200        0.96600        1.79400
H          3.53900        1.22900        0.06400
C          3.23300        5.30000        2.13800
O          3.68400        5.24200        0.99900
N          2.67500        6.41400        2.61700
H          2.30700        6.38000        3.55300
C          2.53600        7.67400        1.87800
H          2.22900        7.43600        0.85900
C          1.42200        8.51100        2.52700
H          1.81400        8.96500        3.43800
H          1.15100        9.32200        1.85000
C          0.18400        7.74500        2.89300
C         -0.88700        7.54900        2.09200
H         -0.99100        7.95700        1.09300
N         -1.79900        6.72800        2.72700
H         -2.67600        6.44700        2.31200
C         -1.35000        6.33700        3.97000
C         -1.88500        5.50400        4.96400
H         -2.84200        5.02700        4.81900
C         -1.16200        5.31000        6.15400
H         -1.56600        4.68200        6.93600
C          0.07800        5.95000        6.33500
H          0.61400        5.81700        7.26400
C          0.60900        6.77900        5.32600
H          1.55000        7.28500        5.48400
C         -0.09000        6.98900        4.11500
C          3.84100        8.48800        1.76000
O          3.86200        9.52500        1.10800
N          4.93400        8.07200        2.39000
H          4.91800        7.22100        2.93600
H          5.77600        8.61200        2.29100
