39
0 1
H          6.69300        3.52600      -11.25500
C          5.66300        3.67300      -10.93400
H          5.00100        3.07800      -11.56200
H          5.39300        4.72400      -11.01600
C          5.51600        3.22000       -9.50100
O          4.73800        2.32100       -9.21700
N          6.24700        3.86700       -8.59200
H          6.86300        4.59100       -8.92300
C          6.34400        3.48400       -7.16600
H          6.71300        2.45900       -7.11200
C          7.38000        4.40200       -6.46100
H          7.09700        5.43900       -6.65500
C          7.41100        4.20800       -4.93200
H          8.15700        4.85200       -4.47200
H          6.44900        4.47200       -4.49100
H          7.63500        3.16800       -4.69000
C          8.79400        4.16100       -7.04900
H          9.14600        3.17200       -6.75200
H          8.74800        4.18100       -8.13700
C          9.84000        5.20700       -6.63700
H         10.75800        5.03500       -7.19900
H          9.47300        6.20900       -6.85900
H         10.06900        5.12600       -5.57600
C          4.97600        3.47800       -6.44800
O          4.77900        2.71500       -5.50900
N          4.01200        4.28400       -6.90800
H          4.22400        4.84800       -7.71400
C          2.64100        4.31900       -6.37100
H          2.70600        4.26700       -5.28400
C          1.98600        5.65800       -6.73000
H          2.65400        6.47600       -6.45600
H          1.80000        5.69700       -7.80400
O          0.76800        5.82000       -6.03600
H          0.26200        4.99700       -6.14100
C          1.74600        3.14000       -6.81500
O          0.55200        3.13200       -6.53100
N          2.25500        2.15800       -7.55000
H          3.23000        2.16600       -7.81800
H          1.65100        1.40200       -7.82300
