49
0 1
H          8.73700       -2.21900      -14.67800
C          9.06900       -2.78200      -15.54700
H          8.22900       -3.30800      -15.99500
H          9.82900       -3.50000      -15.24100
C          9.66800       -1.84100      -16.56400
O         10.78900       -2.04500      -17.01000
N          8.93200       -0.78500      -16.91300
H          8.02000       -0.69300      -16.49700
C          9.31400        0.20200      -17.94800
H          9.58900       -0.36400      -18.83900
C          8.10600        1.09300      -18.33000
H          8.45700        1.87000      -19.01200
C          7.08100        0.25300      -19.11200
H          6.65900       -0.53000      -18.48200
H          6.27400        0.89300      -19.47000
H          7.56100       -0.20500      -19.97800
C          7.37100        1.79000      -17.15900
H          6.54100        2.36200      -17.57600
H          6.94900        1.04300      -16.48600
C          8.22300        2.76400      -16.33800
H          7.57500        3.34000      -15.67800
H          8.93700        2.21800      -15.72400
H          8.75200        3.45000      -17.00100
C         10.57200        1.04000      -17.63100
O         11.00600        1.83300      -18.45900
N         11.16800        0.85800      -16.45200
H         10.76900        0.16300      -15.84000
C         12.47000        1.40300      -16.05500
H         12.60300        2.38500      -16.51200
C         12.47000        1.57900      -14.52600
H         13.48700        1.76800      -14.18000
H         11.88600        2.46900      -14.29200
C         11.89000        0.40300      -13.75300
C         12.62000       -0.79500      -13.63000
H         13.61500       -0.87000      -14.04900
C         12.05600       -1.90000      -12.96400
H         12.60600       -2.82400      -12.87000
C         10.76500       -1.80500      -12.40600
O         10.22600       -2.87300      -11.76300
H          9.47000       -2.63200      -11.22900
C         10.03300       -0.60300      -12.52300
H          9.04600       -0.52700      -12.09500
C         10.59600        0.49600      -13.20100
H         10.03600        1.41700      -13.29400
C         13.66100        0.53800      -16.52500
O         14.81100        0.92500      -16.35700
N         13.43700       -0.64200      -17.09300
H         12.49300       -0.99100      -17.19800
H         14.22800       -1.18200      -17.39800
