42
0 1
H          9.04100        2.80800       -2.68600
C          9.85100        3.25800       -2.11500
H         10.46100        3.88400       -2.76300
H         10.46800        2.47500       -1.67600
C          9.27100        4.10300       -1.00500
O          9.53100        3.84800        0.16300
N          8.48200        5.11000       -1.37400
H          8.29800        5.24500       -2.35700
C          7.81600        6.03400       -0.44400
H          7.54300        5.45900        0.44200
C          8.79500        7.15600       -0.00700
H          9.68800        6.67700        0.39900
C          9.24400        8.03200       -1.19200
H          9.98600        8.75700       -0.85600
H          9.70100        7.41600       -1.96600
H          8.39600        8.56900       -1.61800
C          8.24400        8.09300        1.09200
H          9.01300        8.82800        1.33500
H          7.37600        8.64000        0.72400
C          7.87200        7.37200        2.39400
H          7.59800        8.11000        3.14800
H          7.02300        6.70600        2.23800
H          8.72400        6.79500        2.75500
C          6.51900        6.57300       -1.06300
O          6.40600        6.69000       -2.28300
N          5.53500        6.91400       -0.22900
H          5.68700        6.80600        0.76400
C          4.23400        7.48600       -0.62300
H          3.86800        6.94800       -1.49700
C          3.20800        7.29300        0.50900
H          2.26300        7.75100        0.21800
C          2.95000        5.82000        0.82700
H          2.16900        5.75000        1.58400
H          2.61800        5.30100       -0.07200
H          3.85400        5.34600        1.20900
O          3.67900        7.90900        1.68500
H          3.65300        8.86100        1.51400
C          4.34600        8.96700       -1.02300
O          3.74600        9.84500       -0.41300
N          5.15100        9.28600       -2.02700
H          5.66400        8.55400       -2.50200
H          5.24100       10.25400       -2.28700
