42
0 1
H          4.80100        9.33600        5.75000
C          5.36300        8.41900        5.91200
H          5.30000        8.13000        6.96000
H          6.40600        8.56400        5.63700
C          4.77700        7.31300        5.06600
O          4.33600        6.30100        5.59400
N          4.76400        7.51400        3.74900
H          5.17900        8.35900        3.39400
C          4.34900        6.48500        2.78200
H          3.51200        5.94400        3.22700
C          3.82100        7.11200        1.46700
H          3.57100        6.29700        0.78600
C          2.50500        7.85400        1.75900
H          1.80200        7.18600        2.26000
H          2.68600        8.72000        2.39600
H          2.05100        8.19000        0.82600
C          4.77500        8.07500        0.71900
H          4.19800        8.59400       -0.04800
H          5.16200        8.83100        1.40200
C          5.94700        7.39900       -0.00300
H          5.59300        6.54500       -0.58100
H          6.41000        8.11700       -0.68100
H          6.70000        7.07800        0.71200
C          5.44400        5.42900        2.55900
O          6.62700        5.66800        2.80100
N          5.05100        4.24900        2.07700
H          4.06800        4.10300        1.89400
C          5.93300        3.09400        1.82300
H          6.63500        3.00900        2.65200
C          5.10600        1.79600        1.77700
H          5.76800        0.95900        1.55400
C          4.39200        1.50400        3.09700
H          5.11900        1.45600        3.90700
H          3.65700        2.27800        3.31600
H          3.88100        0.54400        3.02300
O          4.12600        1.89100        0.77000
H          4.61100        1.91000       -0.06700
C          6.76800        3.26600        0.54300
O          6.61400        2.53400       -0.42900
N          7.64400        4.25900        0.49900
H          7.72100        4.88500        1.29100
H          8.18800        4.38900       -0.33700
