48
0 1
H          3.53000       12.54200       -1.21300
C          3.59600       11.64400       -1.82400
H          4.22900       11.82700       -2.69000
H          2.59800       11.35800       -2.15400
C          4.18000       10.51800       -1.00600
O          3.56200        9.47100       -0.86600
N          5.36500       10.74100       -0.43500
H          5.80300       11.63200       -0.60100
C          6.13200        9.73400        0.33100
H          6.18500        8.83700       -0.28800
C          7.58800       10.21200        0.56200
H          8.08500        9.49000        1.21200
C          8.34800       10.19300       -0.77700
H          9.39900       10.43100       -0.60800
H          8.29200        9.19800       -1.22000
H          7.92700       10.91800       -1.47300
C          7.75500       11.61300        1.19600
H          8.82400       11.82200        1.27500
H          7.32200       12.37300        0.54500
C          7.16100       11.77200        2.60000
H          7.49900       12.71500        3.02900
H          6.07300       11.79100        2.55000
H          7.48900       10.95300        3.24100
C          5.46900        9.25000        1.63800
O          6.00200        8.37400        2.30900
N          4.30700        9.80000        1.99600
H          3.91400       10.48600        1.37100
C          3.44500        9.34100        3.09000
H          4.06400        8.92600        3.88600
C          2.69400       10.56100        3.65100
H          1.94300       10.22600        4.36700
H          3.40800       11.17200        4.20400
C          2.02500       11.43000        2.59700
C          2.63800       12.62800        2.17800
H          3.56600       12.94800        2.63100
C          2.04200       13.41600        1.17700
H          2.50700       14.34100        0.86700
C          0.83400       13.00500        0.58700
H          0.37200       13.61100       -0.18100
C          0.21900       11.81100        1.00300
H         -0.71200       11.49700        0.55300
C          0.81100       11.02700        2.00900
H          0.33200       10.11100        2.32800
C          2.47100        8.22000        2.66600
O          1.75600        7.67500        3.49800
N          2.39100        7.86200        1.38900
H          1.75400        7.12600        1.13900
H          2.94700        8.33300        0.68800
