47
0 1
H          2.51200        9.30900        1.33200
C          2.82200        8.99400        0.33800
H          2.46300        9.71000       -0.40100
H          2.42000        8.00800        0.11500
C          4.33000        8.94200        0.27400
O          4.94000        9.63900       -0.52700
N          4.93800        8.11500        1.12300
H          4.37100        7.54100        1.72500
C          6.38600        7.87400        1.09500
H          6.86700        8.85000        1.01100
C          6.87800        7.24600        2.42200
H          6.59700        7.93400        3.22100
C          6.22900        5.88200        2.73200
H          5.14400        5.95200        2.68200
H          6.56600        5.12800        2.02000
H          6.49600        5.55900        3.73800
C          8.42000        7.13700        2.41400
H          8.73400        6.35700        1.71900
H          8.83600        8.08500        2.06900
C          9.02800        6.84300        3.79100
H         10.11500        6.88100        3.71900
H          8.69500        7.59000        4.51300
H          8.73800        5.85000        4.13300
C          6.78100        7.06500       -0.15200
O          6.21600        6.00800       -0.42700
N          7.77500        7.55600       -0.89700
H          8.17100        8.44000       -0.62300
C          8.26600        6.95900       -2.14800
H          7.40700        6.56500       -2.69200
C          8.91500        8.05300       -3.02300
H          9.81600        8.40800       -2.52100
H          9.22000        7.59800       -3.96700
C          8.02100        9.27100       -3.33600
H          7.77100        9.78700       -2.40900
C          8.78500       10.24800       -4.23000
H          8.17400       11.13100       -4.41600
H          9.70500       10.55800       -3.73500
H          9.03100        9.77400       -5.18100
C          6.72400        8.88500       -4.05100
H          6.16900        9.78500       -4.31500
H          6.94600        8.31800       -4.95500
H          6.09800        8.29000       -3.38700
C          9.19600        5.74900       -1.90500
O         10.33400        5.70700       -2.35600
N          8.74200        4.75900       -1.15000
H          7.79900        4.81000       -0.78800
H          9.34000        3.96800       -0.98000
