42
0 1
H         11.07600       11.05200       -3.13800
C         10.14000       11.22700       -2.60900
H          9.37700       11.54800       -3.31400
H         10.28900       11.98800       -1.84500
C          9.70200        9.93800       -1.95500
O         10.37600        8.92300       -2.07900
N          8.57000        9.97700       -1.25300
H          8.05400       10.84000       -1.22800
C          7.96900        8.79000       -0.64000
H          8.75300        8.27000       -0.08600
C          6.87800        9.23400        0.35500
H          7.33300        9.87700        1.10900
H          6.14200        9.82500       -0.19200
C          6.13700        8.08300        1.06400
H          5.67500        7.43100        0.32400
C          7.06400        7.24900        1.95000
H          6.48700        6.48400        2.47000
H          7.82000        6.74500        1.35000
H          7.55600        7.88500        2.68600
C          5.02800        8.65600        1.94700
H          4.33100        9.23100        1.33600
H          4.48200        7.84400        2.42600
H          5.45400        9.30400        2.71400
C          7.42600        7.82800       -1.71200
O          6.70600        8.24200       -2.61800
N          7.71400        6.53400       -1.56300
H          8.31600        6.28000       -0.79000
C          7.33100        5.44300       -2.47000
H          7.54600        5.77000       -3.48900
C          8.24300        4.24200       -2.15400
H          8.00800        3.40900       -2.81600
H          9.28200        4.52400       -2.32900
C          8.11500        3.79400       -0.70900
O          8.80600        4.27700        0.17000
N          7.18900        2.91800       -0.40900
H          7.10300        2.65600        0.55500
H          6.51100        2.66900       -1.11700
C          5.82300        5.07100       -2.45000
O          5.45700        3.89800       -2.48700
N          4.91900        6.03400       -2.35300
H          5.22300        6.99900       -2.37500
H          3.94400        5.78500       -2.33800
