42
0 1
H         11.05200        3.26400       10.91600
C         11.36200        4.24800       10.56500
H         12.30100        4.15900       10.02100
H         11.48500        4.91400       11.41600
C         10.29800        4.79600        9.64600
O          9.30500        4.13100        9.38400
N         10.51800        6.00600        9.12800
H         11.36700        6.48100        9.38900
C          9.55600        6.72600        8.27300
H          8.60000        6.76700        8.79700
C         10.05200        8.16800        8.04100
H         10.99300        8.12300        7.48900
H          9.32600        8.68200        7.40900
C         10.26700        9.01200        9.31300
H         11.01400        8.53200        9.94500
C         10.79100       10.39600        8.92700
H         10.05900       10.91400        8.30700
H         10.97900       10.98300        9.82600
H         11.72400       10.29700        8.37300
C          8.98200        9.19600       10.12100
H          8.20400        9.63200        9.49300
H          8.63900        8.23600       10.50500
H          9.16900        9.85500       10.96900
C          9.25800        6.03600        6.92500
O          8.31200        6.41400        6.24200
N         10.03900        5.02500        6.54100
H         10.79600        4.75300        7.14900
C          9.79500        4.16400        5.37100
H          9.38500        4.77200        4.56500
C         11.11700        3.55000        4.88100
H         10.92100        2.88900        4.03600
C         12.12200        4.61100        4.43100
H         11.67700        5.23000        3.65100
H         12.41600        5.24100        5.27000
H         13.00800        4.11900        4.03000
O         11.72100        2.80800        5.91900
H         11.27500        1.95700        5.96000
C          8.77900        3.04200        5.63500
O          8.51800        2.23300        4.75400
N          8.21800        2.92200        6.83300
H          8.46500        3.55500        7.58200
H          7.55200        2.18300        6.97900
