48
0 1
H          3.41400       11.30900       -9.17400
C          3.26300       12.37700       -9.32700
H          2.53200       12.53400      -10.11700
H          4.20900       12.84100       -9.59500
C          2.75200       12.98600       -8.04300
O          2.50500       12.26600       -7.08500
N          2.58800       14.31300       -8.04500
H          2.83000       14.77900       -8.90400
C          2.16600       15.18600       -6.93000
H          2.19400       16.20300       -7.32200
C          0.69300       14.89500       -6.56600
H          0.08200       15.00600       -7.46400
H          0.61500       13.85800       -6.23800
C          0.10600       15.78400       -5.45200
H          0.69400       15.66800       -4.54200
C          0.07300       17.26400       -5.84000
H         -0.41200       17.83900       -5.05100
H          1.08900       17.64300       -5.95500
H         -0.47500       17.39900       -6.77200
C         -1.32700       15.34400       -5.15100
H         -1.95200       15.46200       -6.03600
H         -1.33300       14.29800       -4.84300
H         -1.73400       15.94600       -4.33900
C          3.10500       15.20900       -5.70500
O          3.42800       16.29300       -5.22800
N          3.56100       14.04800       -5.22900
H          3.21800       13.22200       -5.70800
C          4.57300       13.81200       -4.18300
H          4.65500       12.73000       -4.08300
C          5.94800       14.30600       -4.66700
H          5.98000       15.39300       -4.57600
H          6.71500       13.90600       -4.00100
C          6.29800       13.92100       -6.09500
C          6.27900       14.89200       -7.11500
H          6.02400       15.91600       -6.87900
C          6.59300       14.53500       -8.43900
H          6.59000       15.28700       -9.21600
C          6.92500       13.20400       -8.74800
H          7.17500       12.93000       -9.76300
C          6.93400       12.23000       -7.73400
H          7.18700       11.20600       -7.97100
C          6.62200       12.58800       -6.41000
H          6.63300       11.83700       -5.63300
C          4.25600       14.31600       -2.75900
O          4.75900       13.75900       -1.79100
N          3.41400       15.32300       -2.57500
H          3.22600       15.62500       -1.63400
H          3.07000       15.82900       -3.37900
