45
0 1
H         14.77900       -1.09300       -9.86000
C         13.96800       -1.78800       -9.64900
H         14.32600       -2.57900       -8.99200
H         13.60000       -2.21400      -10.58000
C         12.84800       -1.04000       -8.96500
O         12.95800        0.15800       -8.74200
N         11.77600       -1.75500       -8.62900
H         11.79700       -2.75000       -8.79900
C         10.59100       -1.24000       -7.93200
H         10.86000       -0.33200       -7.39000
C          9.47200       -0.91300       -8.94400
H          9.27100       -1.81500       -9.52500
H          8.56200       -0.67100       -8.39300
C          9.76100        0.24600       -9.91900
H         10.69000        0.05900      -10.45500
C          8.63100        0.33700      -10.94700
H          8.56000       -0.60000      -11.49800
H          7.68300        0.53700      -10.44800
H          8.84300        1.14000      -11.65300
C          9.85000        1.59500       -9.20200
H          8.93500        1.79100       -8.64300
H         10.70200        1.60000       -8.52300
H         10.00200        2.38800       -9.93400
C         10.09600       -2.26000       -6.89500
O         10.34600       -3.45800       -7.02300
N          9.37100       -1.78600       -5.87900
H          9.17400       -0.79500       -5.84000
C          8.78000       -2.61200       -4.82100
H          8.46600       -3.55900       -5.26100
C          9.84900       -2.89900       -3.74900
H         10.71300       -3.36200       -4.22600
H         10.18000       -1.95400       -3.31300
C          9.37600       -3.81600       -2.61300
H         10.23500       -4.04700       -1.98200
H          8.66300       -3.26800       -1.99600
S          8.60100       -5.38100       -3.11900
C          9.95400       -6.15100       -4.05000
H         10.84100       -6.22300       -3.42000
H          9.65400       -7.15200       -4.36300
H         10.18300       -5.55700       -4.93600
C          7.53300       -1.93000       -4.23600
O          7.42200       -0.70900       -4.25000
N          6.57800       -2.69200       -3.72000
H          5.76200       -2.24200       -3.34100
H          6.69100       -3.69400       -3.69200
