47
0 1
H          7.90000        7.08900       -1.38400
C          7.55600        7.53300       -2.31600
H          6.95500        6.80700       -2.86300
H          8.40700        7.83000       -2.92500
C          6.70600        8.74300       -2.01400
O          5.53900        8.77300       -2.38200
N          7.30700        9.73300       -1.34700
H          8.27400        9.57800       -1.11400
C          6.72400       11.00800       -0.87800
H          7.52200       11.52400       -0.34500
C          6.36600       11.88900       -2.09600
H          7.25700       12.01200       -2.71300
H          5.61900       11.36600       -2.69500
C          5.80100       13.28300       -1.75600
H          4.90400       13.17900       -1.14600
C          6.81300       14.15600       -1.01000
H          6.39300       15.15000       -0.85300
H          7.02900       13.72500       -0.03300
H          7.73500       14.24200       -1.58500
C          5.41300       14.00300       -3.04700
H          4.98200       14.97600       -2.81000
H          6.29000       14.14200       -3.68000
H          4.67000       13.41600       -3.58600
C          5.57300       10.89400        0.14600
O          5.58900       11.60600        1.14700
N          4.59900       10.00700       -0.07000
H          4.66400        9.46200       -0.92300
C          3.41800        9.78800        0.77500
H          3.06500       10.75700        1.13200
C          2.29000        9.15600       -0.07500
H          2.69000        8.30800       -0.63300
H          1.53600        8.76700        0.61100
C          1.55400       10.11200       -1.03700
H          1.15500       10.94900       -0.46400
C          2.41600       10.66900       -2.17400
H          3.14800       11.36700       -1.77500
H          2.92600        9.85600       -2.69100
H          1.79100       11.21100       -2.88300
C          0.37800        9.37000       -1.67600
H         -0.18800       10.04900       -2.31300
H          0.74400        8.53500       -2.27400
H         -0.28600        8.99100       -0.89900
C          3.76100        8.96500        2.04100
O          3.19100        7.91500        2.31200
N          4.72800        9.41200        2.82900
H          5.19600       10.27600        2.59100
H          4.96400        8.88200        3.65000
