47
0 1
H         -1.51200       16.43000        1.19500
C         -1.20700       15.52800        1.72400
H         -0.12200       15.44500        1.70400
H         -1.65700       14.66000        1.24600
C         -1.68200       15.61600        3.15400
O         -2.29100       16.60300        3.54200
N         -1.37000       14.59500        3.95300
H         -0.85500       13.82800        3.55200
C         -1.83300       14.45300        5.34700
H         -2.92000       14.54700        5.35200
C         -1.46300       13.05000        5.87200
H         -0.37500       12.97000        5.90100
H         -1.82500       12.96000        6.89800
C         -2.02300       11.86400        5.06100
H         -1.64600       11.91300        4.03900
C         -1.54700       10.55000        5.67900
H         -1.92300       10.45800        6.69900
H         -1.91000        9.71000        5.08700
H         -0.45800       10.52100        5.69500
C         -3.55200       11.84900        5.02100
H         -3.95300       11.84800        6.03500
H         -3.92300       12.72300        4.48800
H         -3.89900       10.95800        4.49800
C         -1.32900       15.54400        6.31900
O         -1.76900       15.58800        7.46300
N         -0.43100       16.42800        5.87200
H         -0.15800       16.34600        4.90700
C         -0.00300       17.63200        6.59700
H          0.03900       17.38400        7.65900
C          1.43200       18.01200        6.16800
H          1.69600       18.95700        6.64600
H          2.10100       17.25400        6.57800
C          1.72600       18.12000        4.65600
H          1.56100       17.14800        4.18800
C          0.87600       19.15700        3.92300
H          1.23900       19.28600        2.90300
H         -0.15800       18.82200        3.86800
H          0.92200       20.11400        4.44400
C          3.19600       18.49100        4.45600
H          3.39400       19.47400        4.88500
H          3.83400       17.75300        4.94200
H          3.43400       18.51100        3.39200
C         -0.99700       18.81300        6.50400
O         -0.75900       19.86900        7.07700
N         -2.10600       18.68300        5.78600
H         -2.28600       17.83200        5.27200
H         -2.74100       19.46200        5.74600
