45
0 1
H        -10.47500       15.67200       -3.01100
C        -10.51400       15.17100       -3.97800
H        -11.41900       15.46700       -4.50500
H        -10.50700       14.09300       -3.82900
C         -9.30300       15.57100       -4.78600
O         -8.46200       16.32200       -4.30700
N         -9.21500       15.07900       -6.02200
H         -9.95300       14.47500       -6.34500
C         -8.11200       15.36800       -6.94800
H         -7.18700       15.33400       -6.37000
C         -8.04900       14.24500       -8.00700
H         -8.01400       13.28500       -7.49000
H         -8.96800       14.27400       -8.59500
C         -6.84900       14.31700       -8.97500
H         -6.87100       15.24800       -9.53700
C         -5.50500       14.21800       -8.24700
H         -4.69600       14.18400       -8.97700
H         -5.35300       15.09300       -7.61700
H         -5.47300       13.31600       -7.63600
C         -6.93200       13.15900       -9.97000
H         -6.88400       12.20500       -9.44700
H         -7.86900       13.22100      -10.52500
H         -6.10700       13.22300      -10.67900
C         -8.22000       16.79000       -7.53800
O         -8.55500       16.97500       -8.70600
N         -7.96900       17.80600       -6.71000
H         -7.78000       17.56800       -5.74100
C         -8.02600       19.23400       -7.06400
H         -8.88700       19.39400       -7.71100
C         -8.24100       20.08300       -5.79700
H         -7.37500       19.96300       -5.14300
H         -8.30400       21.13400       -6.08200
C         -9.50300       19.73200       -4.99200
H         -9.46100       18.69300       -4.67100
H         -9.48300       20.34400       -4.09000
S        -11.09800       20.04200       -5.80700
C        -11.42600       18.44600       -6.60600
H        -12.42700       18.46100       -7.03800
H        -10.70500       18.26400       -7.40200
H        -11.36500       17.64800       -5.86700
C         -6.80000       19.69600       -7.88100
O         -6.09400       20.63000       -7.52000
N         -6.49800       19.02600       -8.98400
H         -5.69700       19.31600       -9.51900
H         -7.09100       18.26000       -9.27500
