39
0 1
H          5.81200        6.18700        8.48200
C          5.64500        5.32500        7.83900
H          5.71700        4.41300        8.43000
H          6.39000        5.30400        7.04500
C          4.26400        5.41100        7.23600
O          3.44400        4.52600        7.44400
N          4.01700        6.46300        6.45400
H          4.75700        7.13400        6.32200
C          2.70500        6.77400        5.85800
H          1.99000        6.82700        6.68200
C          2.75300        8.17300        5.20500
H          1.72000        8.51500        5.12000
H          3.26300        8.86600        5.87700
C          3.38100        8.26700        3.79700
H          2.84700        7.61000        3.11100
C          3.24500        9.70000        3.28100
H          3.78400       10.39000        3.93000
H          3.64600        9.76900        2.27000
H          2.19100        9.98100        3.25300
C          4.86800        7.90400        3.76700
H          5.00100        6.84700        3.99000
H          5.26600        8.08000        2.76700
H          5.42100        8.51300        4.48200
C          2.14300        5.71000        4.89100
O          0.98400        5.79600        4.50100
N          2.94300        4.71300        4.50500
H          3.88600        4.70700        4.85500
C          2.51000        3.56800        3.70100
H          1.83900        3.92400        2.91800
C          3.74500        2.93700        3.03900
H          4.38000        2.49300        3.80800
H          3.42400        2.14300        2.36100
S          4.70300        4.17900        2.11700
H          3.80200        4.39700        1.15200
C          1.72500        2.50800        4.50400
O          1.21100        1.55900        3.92500
N          1.64000        2.61000        5.82600
H          1.12000        1.91000        6.32700
H          2.09300        3.37400        6.31200
