44
0 1
H          1.98200        2.54600       -3.03800
C          2.80700        3.25200       -3.10500
H          2.98500        3.50400       -4.15000
H          3.70700        2.81600       -2.67600
C          2.45100        4.51200       -2.35200
O          2.41600        5.58900       -2.93200
N          2.20300        4.38200       -1.04900
H          2.27900        3.46100       -0.64900
C          1.83300        5.48600       -0.14800
H          1.14800        6.14300       -0.68500
C          1.08500        4.92500        1.08200
H          1.77700        4.29800        1.64800
H          0.80100        5.76200        1.72200
C         -0.18100        4.10100        0.77400
H          0.08700        3.23400        0.16900
C         -0.79500        3.59800        2.08000
H         -1.09600        4.44100        2.70300
H         -1.66900        2.98200        1.86400
H         -0.06700        2.99400        2.62100
C         -1.24300        4.91200        0.02900
H         -1.49400        5.81000        0.59400
H         -0.87600        5.19400       -0.95800
H         -2.14200        4.30900       -0.10300
C          3.04000        6.37200        0.23700
O          3.32900        6.57700        1.41300
N          3.76400        6.88600       -0.76100
H          3.44200        6.67900       -1.70200
C          5.02400        7.65200       -0.63200
H          5.62700        7.14900        0.12400
C          5.83300        7.60400       -1.95000
H          6.77100        8.14000       -1.80200
C          6.20000        6.16100       -2.32300
H          5.30700        5.58800       -2.57200
H          6.86600        6.16800       -3.18600
H          6.71600        5.68600       -1.48900
C          5.09800        8.24300       -3.13800
H          4.85900        9.28200       -2.91400
H          5.74100        8.22200       -4.01800
H          4.17800        7.70200       -3.36100
C          4.85200        9.09400       -0.10900
O          5.63200        9.98600       -0.42000
N          3.83000        9.37200        0.68800
H          3.72900       10.31300        1.02700
H          3.24600        8.61800        1.01800
