45
0 1
H         13.04700       14.33200       -7.99300
C         13.16600       13.99600       -6.96500
H         12.20500       14.02000       -6.45300
H         13.87200       14.64500       -6.45100
C         13.69800       12.58100       -6.96400
O         13.88800       11.99600       -8.02400
N         13.93500       12.03500       -5.77100
H         13.70900       12.58300       -4.95600
C         14.60900       10.74400       -5.55900
H         15.56100       10.76100       -6.09100
C         14.88300       10.54100       -4.05100
H         13.94100       10.63000       -3.50700
H         15.22200        9.51200       -3.91600
C         15.93600       11.43900       -3.36700
H         16.06100       11.05800       -2.35300
C         17.30000       11.36900       -4.05400
H         17.25600       11.82600       -5.04200
H         18.03900       11.89700       -3.45300
H         17.60800       10.32700       -4.15300
C         15.52600       12.90900       -3.24300
H         16.22400       13.41800       -2.57900
H         15.55800       13.40200       -4.21400
H         14.52600       12.98000       -2.81600
C         13.84300        9.53000       -6.12400
O         14.43800        8.47400       -6.31300
N         12.54700        9.67000       -6.41600
H         12.12000       10.57100       -6.23600
C         11.73400        8.65400       -7.10000
H         11.98800        7.68600       -6.66500
C         10.23800        8.91200       -6.80900
H          9.69600        7.98300       -6.99100
H         10.11800        9.15100       -5.75100
C          9.56500       10.01300       -7.65300
H          9.49900        9.67600       -8.68800
H          8.54600       10.16000       -7.29500
C         10.28600       11.35700       -7.60400
O         10.67900       11.84900       -6.55800
N         10.53100       11.98300       -8.73200
H         10.26600       11.57600       -9.61000
H         11.09200       12.81400       -8.67100
C         12.02100        8.53800       -8.61500
O         11.40600        7.73100       -9.30000
N         12.90100        9.35300       -9.18500
H         13.38300       10.05200       -8.63500
H         13.08900        9.24400      -10.16700
