42
0 1
H         -0.18500       11.38600        8.26800
C          0.64500       10.69700        8.12200
H          1.03700       10.38600        9.08900
H          1.42700       11.18300        7.54300
C          0.14800        9.48400        7.37100
O         -1.02700        9.40900        7.03500
N          1.04600        8.53600        7.11200
H          1.98800        8.66100        7.45200
C          0.76200        7.27700        6.41300
H         -0.25800        6.98400        6.66600
C          0.81900        7.51500        4.88600
H          0.43800        6.63700        4.36500
H          0.12100        8.32500        4.66600
C          2.20500        7.88000        4.30900
H          2.80500        8.38900        5.06300
C          2.96500        6.64900        3.80900
H          3.14000        5.95500        4.62600
H          2.39800        6.14400        3.02700
H          3.93200        6.95200        3.40800
C          2.04700        8.82500        3.11600
H          1.44800        8.35100        2.33800
H          1.55600        9.74300        3.43800
H          3.02700        9.08000        2.71300
C          1.71300        6.16200        6.90100
O          2.81800        6.47500        7.35300
N          1.32200        4.87300        6.82800
C          0.02400        4.39000        6.37100
H         -0.21300        4.75500        5.37200
H         -0.74800        4.70100        7.07700
C          0.11700        2.86500        6.35500
H          0.48600        2.52800        5.38500
H         -0.84200        2.39900        6.58300
C          1.15800        2.58000        7.43600
H          1.63500        1.60800        7.29900
H          0.68200        2.62700        8.41700
C          2.14100        3.75000        7.29300
H          2.55900        3.97700        8.27400
C          3.30900        3.45500        6.33200
O          3.24600        2.57400        5.48200
N          4.40000        4.19900        6.44100
H          5.16700        4.02100        5.81500
H          4.40400        4.98000        7.08100
