44
0 1
H         -2.00200        2.39700       -4.64100
C         -1.86000        3.42700       -4.96400
H         -2.69100        3.72900       -5.60000
H         -0.92600        3.51900       -5.51400
C         -1.81900        4.32800       -3.75200
O         -2.64500        5.22200       -3.62200
N         -0.84900        4.09300       -2.86900
H         -0.19300        3.35100       -3.05900
C         -0.64400        4.85200       -1.63200
H         -0.97800        5.87700       -1.79900
C         -1.50800        4.22100       -0.51900
H         -2.55100        4.23600       -0.83900
H         -1.20900        3.17700       -0.41100
C         -1.41300        4.89100        0.86500
H         -0.38100        4.87500        1.20800
C         -1.91300        6.33800        0.84500
H         -1.86200        6.75500        1.85100
H         -1.29500        6.95000        0.19200
H         -2.94500        6.37100        0.49400
C         -2.25900        4.11300        1.87200
H         -2.16500        4.56700        2.85900
H         -3.30600        4.11800        1.56900
H         -1.90500        3.08300        1.93100
C          0.85000        4.88700       -1.26900
O          1.57100        3.91800       -1.50200
N          1.31600        5.99700       -0.69200
H          0.66800        6.74400       -0.49400
C          2.69000        6.12700       -0.17900
H          3.37600        5.69100       -0.90700
C          3.07800        7.60800        0.00900
H          2.37400        8.08000        0.69600
C          4.49500        7.76800        0.57700
H          4.55000        7.34400        1.58000
H          5.22000        7.27200       -0.06900
H          4.74600        8.82700        0.64900
C          3.02600        8.36300       -1.32800
H          2.01500        8.34900       -1.73300
H          3.31600        9.40300       -1.17600
H          3.70600        7.90400       -2.04500
C          2.83000        5.34700        1.13300
O          2.14500        5.62700        2.10800
N          3.72800        4.37400        1.18900
H          4.25000        4.12100        0.36700
H          3.81300        3.85700        2.04800
