49
0 1
H         16.27900        9.29800       10.22300
C         15.51800        8.55500        9.99300
H         15.60000        7.71200       10.67600
H         15.65100        8.20800        8.96900
C         14.14800        9.17600       10.12400
O         13.38600        9.19100        9.16800
N         13.84400        9.71000       11.30800
H         14.53400        9.64000       12.03800
C         12.54000       10.31000       11.65200
H         11.77200        9.54500       11.52700
C         12.61600       10.69800       13.14800
H         12.90200        9.79800       13.69400
H         13.42500       11.41700       13.28200
C         11.36300       11.25100       13.86200
H         11.55700       11.15100       14.93100
C         11.10900       12.74000       13.62200
H         10.33800       13.08700       14.30900
H         12.02000       13.31000       13.80400
H         10.76300       12.92100       12.60700
C         10.09800       10.44600       13.56600
H          9.28700       10.79300       14.20700
H          9.79900       10.57600       12.52600
H         10.27600        9.39000       13.76300
C         12.14800       11.48200       10.72600
O         10.97200       11.70200       10.46000
N         13.13900       12.19500       10.18700
H         14.08000       11.90700       10.39800
C         12.98300       13.26300        9.19100
H         12.18200       13.92800        9.51500
C         14.29700       14.06500        9.15700
H         14.26100       14.79400        8.34600
H         14.37500       14.63000       10.08700
C         15.54100       13.20500        9.00300
C         15.88500       12.68000        7.74200
H         15.28700       12.92800        6.87300
C         16.99400       11.82300        7.60900
H         17.24700       11.41600        6.64200
C         17.76800       11.49500        8.74400
O         18.83100       10.65800        8.63200
H         19.01800       10.43700        7.71900
C         17.43100       12.02900       10.00500
H         18.03900       11.78000       10.86100
C         16.31900       12.88300       10.13400
H         16.06600       13.29600       11.10100
C         12.59300       12.77000        7.77700
O         12.44000       13.57500        6.86600
N         12.45800       11.47300        7.53400
H         12.19200       11.18500        6.60900
H         12.60100       10.79200        8.26900
