52
0 1
H          5.59000       15.63300        4.22000
C          6.61000       15.45000        3.88700
H          6.59600       15.05800        2.87100
H          7.09500       14.73400        4.54700
C          7.38100       16.74800        3.90000
O          7.87000       17.18700        2.86600
N          7.49700       17.36500        5.07700
H          7.07900       16.93000        5.88300
C          8.23100       18.62000        5.28100
H          7.99200       19.27600        4.44200
C          7.71400       19.29300        6.57100
H          6.62800       19.37600        6.50500
H          7.94800       18.64300        7.41600
C          8.29000       20.69500        6.86000
H          9.37200       20.64400        6.97000
C          7.95900       21.70200        5.75600
H          6.88200       21.73900        5.58900
H          8.31000       22.69300        6.04600
H          8.46300       21.42500        4.83100
C          7.70500       21.22300        8.17000
H          6.62200       21.31600        8.09000
H          7.95000       20.53800        8.98200
H          8.13400       22.19800        8.39900
C          9.75800       18.39400        5.25300
O         10.42700       18.41600        6.28500
N         10.30300       18.13600        4.06300
H          9.67000       18.04500        3.27500
C         11.73200       17.89900        3.82600
H         12.10700       17.25200        4.61900
C         11.90100       17.13900        2.50200
H         11.21900       16.28800        2.50100
H         11.61400       17.78800        1.67400
C         13.28200       16.60900        2.25700
C         14.23300       17.21500        1.51400
H         14.09900       18.16500        1.00600
N         15.39100       16.46400        1.53400
H         16.23600       16.73500        1.05300
C         15.24800       15.33300        2.31000
C         16.11900       14.28600        2.64700
H         17.12800       14.27200        2.26500
C         15.65800       13.25900        3.48800
H         16.31500       12.44300        3.75900
C         14.34000       13.29400        3.98000
H         13.99000       12.50100        4.62700
C         13.47500       14.35100        3.63500
H         12.46500       14.36600        4.01700
C         13.90500       15.39800        2.79000
C         12.55300       19.20500        3.89100
O         12.99800       19.75500        2.88900
N         12.72500       19.75700        5.08400
H         13.24300       20.61600        5.14600
H         12.28300       19.33600        5.89000
