49
0 1
H         -0.66500        8.58300       -1.70100
C         -0.48500        7.70100       -2.31300
H          0.08500        7.98100       -3.19700
H         -1.43600        7.26200       -2.60700
C          0.30300        6.69700       -1.50500
O          0.60600        6.93600       -0.34300
N          0.63500        5.56500       -2.12400
H          0.37400        5.47300       -3.09200
C          1.32300        4.42600       -1.49400
H          0.92300        4.31400       -0.48500
C          1.00300        3.13100       -2.27400
H          1.44400        3.21300       -3.26900
H          1.48900        2.29600       -1.76700
C         -0.49400        2.79600       -2.42800
H         -0.99300        3.59700       -2.97400
C         -0.65000        1.50600       -3.23200
H         -0.18000        0.67500       -2.70500
H         -1.70800        1.28600       -3.37700
H         -0.18100        1.62100       -4.20900
C         -1.19500        2.60600       -1.08100
H         -0.68600        1.83900       -0.49800
H         -1.19800        3.54300       -0.52500
H         -2.23000        2.30500       -1.24400
C          2.84100        4.65400       -1.30700
O          3.65500        3.79900       -1.65000
N          3.23200        5.81400       -0.77500
H          2.49900        6.46000       -0.50200
C          4.62400        6.25900       -0.59800
H          5.16800        5.99000       -1.50400
C          4.65300        7.79300       -0.48300
H          4.18900        8.08100        0.46200
H          5.69200        8.12400       -0.45100
C          3.96300        8.52600       -1.62100
C          2.75900        9.22100       -1.39200
H          2.31800        9.23100       -0.40400
C          2.12500        9.90100       -2.44900
H          1.20700       10.44300       -2.28100
C          2.68800        9.88000       -3.74100
O          2.06300       10.52600       -4.75900
H          2.60400       10.56100       -5.54800
C          3.89400        9.18200       -3.97400
H          4.32900        9.16400       -4.96100
C          4.52900        8.51000       -2.91100
H          5.45600        7.98000       -3.08500
C          5.37200        5.56600        0.56600
O          6.13400        6.18600        1.30000
N          5.16200        4.27500        0.78500
H          5.64500        3.83100        1.54700
H          4.58000        3.75600        0.14200
