42
0 1
H          9.14700       -3.75300       -2.55300
C          9.03500       -4.36300       -1.65800
H         10.01100       -4.72600       -1.33900
H          8.37900       -5.20700       -1.86200
C          8.44100       -3.52200       -0.55200
O          9.05900       -3.35400        0.49100
N          7.23700       -3.00100       -0.78200
H          6.78800       -3.19700       -1.66400
C          6.50700       -2.14500        0.15800
H          6.81100       -2.41400        1.16900
C          6.90800       -0.68000       -0.11500
H          7.99700       -0.60000       -0.13800
H          6.54000       -0.41400       -1.10800
C          6.36400        0.33900        0.90300
H          5.32100        0.12000        1.12500
C          7.17300        0.31700        2.20200
H          7.18700       -0.68400        2.62900
H          8.20200        0.62300        2.00700
H          6.72900        1.00200        2.92400
C          6.43700        1.75300        0.32800
H          6.05400        2.46700        1.05700
H          7.46900        2.00700        0.08300
H          5.82700        1.81500       -0.57300
C          4.98700       -2.36200       -0.00800
O          4.52300       -2.39100       -1.15100
N          4.19200       -2.49700        1.07400
C          4.62700       -2.58500        2.46400
H          5.20500       -1.71100        2.75700
H          5.21800       -3.49200        2.60200
C          3.35600       -2.66600        3.31000
H          3.03300       -1.66100        3.58600
H          3.50100       -3.28100        4.19900
C          2.34700       -3.28700        2.34700
H          1.31700       -3.07500        2.63600
H          2.50700       -4.36600        2.30400
C          2.73600       -2.66200        1.00000
H          2.48400       -3.36300        0.20400
C          2.02000       -1.32800        0.69800
O          1.28600       -0.78500        1.51400
N          2.24600       -0.75400       -0.47400
H          1.78900        0.11900       -0.67800
H          2.87900       -1.19400       -1.12800
