44
0 1
H          7.55100        2.65400        3.55400
C          7.41400        3.35800        2.73500
H          6.38200        3.70300        2.71900
H          7.65900        2.87400        1.79200
C          8.33300        4.53800        2.94500
O          9.06900        4.57600        3.92100
N          8.28100        5.50200        2.02800
H          7.60400        5.41400        1.28500
C          9.06700        6.74200        2.05500
H          9.38700        6.93900        3.07900
C         10.31200        6.61000        1.15200
H          9.97400        6.33600        0.15100
H         10.79500        7.58500        1.07700
C         11.37100        5.58700        1.61000
H         10.91200        4.60800        1.74000
C         12.45300        5.46300        0.53500
H         12.94700        6.42300        0.38300
H         13.19200        4.72400        0.84400
H         12.00500        5.13400       -0.40200
C         12.05400        6.00700        2.91300
H         11.32900        6.02000        3.72600
H         12.82700        5.28300        3.17000
H         12.50500        6.99300        2.80700
C          8.20700        7.93300        1.60800
O          7.26200        7.77000        0.83500
N          8.56000        9.13900        2.06400
H          9.35800        9.19100        2.67600
C          7.88300       10.40800        1.72900
H          6.81500       10.19300        1.67800
C          8.05300       11.42000        2.88800
H          7.69400       10.91900        3.78800
C          9.50300       11.83900        3.17100
H         10.12700       10.96500        3.34800
H          9.91100       12.40800        2.33600
H          9.53100       12.46800        4.06200
C          7.17900       12.66900        2.71800
H          7.21700       13.26800        3.62800
H          7.53300       13.27800        1.88700
H          6.14500       12.37700        2.53500
C          8.26100       10.91700        0.32100
O          8.81500       11.98900        0.12300
N          8.00300       10.11800       -0.70400
H          8.25200       10.42500       -1.62900
H          7.56600        9.22100       -0.53500
