47
0 1
H         14.75100       10.23800       -0.77500
C         13.97500       10.83700       -1.24700
H         14.21900       11.00400       -2.29400
H         13.89400       11.79600       -0.73700
C         12.65100       10.11700       -1.15100
O         11.71200       10.63000       -0.55700
N         12.58700        8.90600       -1.70600
H         13.41800        8.56100       -2.15700
C         11.36200        8.09300       -1.83200
H         10.60400        8.73700       -2.28200
C         11.61100        6.94300       -2.83500
H         10.69600        6.35400       -2.92400
H         11.78400        7.39900       -3.81100
C         12.78900        5.98600       -2.55000
H         13.71600        6.56000       -2.52000
C         12.66100        5.20600       -1.24100
H         12.76900        5.87800       -0.39400
H         11.68800        4.71400       -1.19200
H         13.44700        4.45400       -1.17500
C         12.89900        4.97300       -3.69000
H         13.76200        4.32700       -3.53000
H         11.99700        4.36100       -3.73300
H         13.02500        5.49400       -4.63900
C         10.71400        7.61400       -0.50900
O          9.75000        6.85600       -0.54400
N         11.22400        8.05100        0.64700
H         11.96700        8.72800        0.58500
C         10.60600        7.84600        1.96500
H         10.00900        6.93300        1.94000
C         11.70800        7.67800        3.03100
H         12.25500        8.61800        3.11100
H         11.22500        7.49400        3.99200
C         12.71700        6.54300        2.76900
H         13.26000        6.74500        1.84500
C         13.73500        6.49000        3.90900
H         14.24500        7.44900        3.99200
H         13.23100        6.26900        4.85000
H         14.47500        5.71600        3.70700
C         12.05100        5.17000        2.66000
H         12.81000        4.39900        2.53600
H         11.47100        4.96400        3.56000
H         11.39100        5.14200        1.79300
C          9.63000        8.97700        2.35300
O          8.94400        8.88300        3.36300
N          9.55600       10.06500        1.59500
H         10.14300       10.15900        0.77700
H          8.91200       10.78900        1.86300
