48
0 1
H          4.86400        5.72800       -7.27800
C          4.22900        6.17700       -6.51700
H          3.28400        5.63800       -6.46500
H          4.04100        7.22200       -6.75500
C          4.91600        6.08800       -5.17500
O          4.39700        5.47300       -4.25200
N          6.09000        6.70800       -5.06600
H          6.42200        7.21800       -5.86800
C          6.94800        6.68800       -3.87000
H          6.90200        5.68600       -3.44200
C          8.41300        6.96200       -4.27700
H          8.47800        7.98200       -4.66100
H          9.03500        6.90700       -3.38200
C          9.00200        6.00400       -5.33200
H          8.42400        6.07500       -6.25300
C         10.44300        6.40900       -5.64400
H         10.85000        5.75900       -6.41800
H         10.46700        7.43800       -6.00500
H         11.05900        6.33000       -4.74800
C          9.00800        4.54700       -4.86400
H          9.54500        4.45800       -3.92000
H          7.98700        4.19000       -4.73700
H          9.49500        3.92200       -5.61300
C          6.45000        7.63300       -2.75100
O          7.21300        8.42900       -2.20900
N          5.16100        7.56200       -2.41300
H          4.60100        6.86700       -2.89500
C          4.47100        8.43600       -1.45100
H          4.82100        9.45400       -1.62700
C          2.96000        8.41000       -1.74500
H          2.57200        7.42500       -1.48100
H          2.46500        9.13800       -1.10000
C          2.58100        8.72700       -3.18200
C          1.98300        7.74400       -3.99400
H          1.80200        6.75300       -3.60200
C          1.61500        8.04800       -5.31700
H          1.14600        7.29300       -5.93200
C          1.85500        9.33100       -5.83800
H          1.57000        9.56500       -6.85400
C          2.45800       10.31300       -5.03300
H          2.63700       11.30300       -5.43000
C          2.81600       10.01300       -3.70600
H          3.26800       10.77500       -3.08700
C          4.79100        8.13200        0.03200
O          3.92400        8.17000        0.89700
N          6.03100        7.80000        0.36400
H          6.23300        7.59700        1.32900
H          6.75400        7.82700       -0.34100
