45
0 1
H          3.57100       14.96800        3.78900
C          4.34500       14.23300        4.00400
H          5.32000       14.71800        3.99900
H          4.31800       13.44400        3.25500
C          4.09300       13.63800        5.36900
O          3.13300       14.01400        6.03100
N          4.95700       12.71000        5.77600
H          5.74500       12.51400        5.18100
C          4.95300       12.09500        7.11000
H          3.93900       12.13000        7.51100
C          5.38400       10.61800        7.01200
H          6.40700       10.58300        6.63300
H          5.38800       10.19100        8.01600
C          4.49400        9.73700        6.11300
H          4.50100       10.12800        5.09500
C          5.05500        8.31500        6.07900
H          4.45100        7.69700        5.41500
H          6.07900        8.33100        5.70500
H          5.04300        7.88300        7.08000
C          3.04800        9.66600        6.60600
H          3.01800        9.32500        7.64100
H          2.58000       10.64900        6.53900
H          2.47800        8.97700        5.98400
C          5.84100       12.87100        8.10000
O          6.74600       13.60500        7.70700
N          5.58200       12.69300        9.39600
H          4.81500       12.08000        9.64600
C          6.18300       13.45800       10.49300
H          7.21800       13.68600       10.23000
C          5.43100       14.79600       10.67800
H          5.88400       15.32600       11.51700
H          5.58800       15.41300        9.79200
C          3.91400       14.68200       10.94900
H          3.73300       13.98900       11.77000
H          3.54100       15.66200       11.24700
C          3.12300       14.22900        9.72300
O          2.63400       13.11600        9.65000
N          3.06800       15.02600        8.67800
H          2.71600       14.61700        7.81500
H          3.52200       15.91600        8.68000
C          6.20900       12.63700       11.79300
O          5.45900       11.68400       11.96500
N          7.06600       12.99700       12.73900
H          7.68400       13.77800       12.59900
H          7.08000       12.45800       13.59100
