39
0 1
H          0.00500        3.80200        1.69800
C          0.24700        4.84200        1.48700
H          0.54100        5.34300        2.40700
H         -0.61900        5.33800        1.05300
C          1.39300        4.88800        0.50400
O          1.88500        3.85000        0.08500
N          1.82000        6.09800        0.14400
H          1.39300        6.90100        0.58200
C          2.93400        6.36500       -0.77400
H          3.58400        5.49000       -0.80900
C          2.40200        6.65700       -2.19400
H          1.69600        7.48600       -2.12300
H          3.23300        6.99000       -2.81700
C          1.71000        5.48100       -2.91000
H          0.90200        5.09200       -2.29200
C          1.10400        5.97500       -4.22500
H          0.59300        5.15200       -4.72500
H          0.37700        6.76200       -4.02300
H          1.88500        6.36300       -4.88000
C          2.68700        4.35100       -3.24200
H          3.51200        4.72500       -3.84700
H          3.07400        3.91200       -2.32300
H          2.16400        3.56700       -3.79000
C          3.77700        7.54300       -0.26500
O          3.26300        8.43800        0.40400
N          5.06600        7.56400       -0.62000
H          5.40500        6.80000       -1.18400
C          6.03300        8.60800       -0.23500
H          5.86200        8.85100        0.81400
C          7.45800        8.04400       -0.33800
H          7.53800        7.14800        0.28000
H          7.67500        7.78000       -1.37400
O          8.40200        8.99200        0.10800
H          8.35000        9.74700       -0.49800
C          5.86400        9.92400       -1.02500
O          6.80100       10.43500       -1.63100
N          4.66300       10.48400       -1.07100
H          3.90100       10.06100       -0.55800
H          4.54700       11.33900       -1.58700
