44
0 1
H          2.56400        3.90600       -4.33600
C          2.15500        4.50200       -3.52200
H          1.36100        3.94600       -3.02500
H          1.75700        5.43900       -3.90800
C          3.24500        4.79800       -2.52000
O          3.13700        4.41900       -1.36000
N          4.30100        5.47800       -2.96700
H          4.30700        5.78000       -3.92700
C          5.41000        5.89900       -2.10600
H          5.66200        5.06100       -1.45600
C          6.63900        6.21300       -2.98900
H          6.73700        5.41400       -3.72500
H          6.45100        7.13300       -3.54500
C          8.00800        6.34000       -2.28500
H          8.74800        6.51100       -3.06800
C          8.11900        7.50300       -1.30000
H          9.16000        7.63200       -1.00500
H          7.77100        8.42100       -1.77300
H          7.53000        7.31000       -0.40500
C          8.40400        5.05400       -1.55700
H          9.43500        5.13700       -1.21100
H          7.76100        4.88800       -0.69300
H          8.33000        4.20500       -2.23600
C          4.96500        7.07200       -1.21300
O          5.00800        8.23300       -1.61700
N          4.51600        6.76100        0.00400
H          4.41400        5.78200        0.23300
C          4.16300        7.76100        1.02300
H          3.54700        8.52800        0.55300
C          3.33800        7.12600        2.16300
H          3.91200        6.31500        2.61400
C          2.99000        8.14400        3.25800
H          2.36900        7.66900        4.01800
H          3.89800        8.50100        3.74400
H          2.44900        8.98800        2.83000
C          2.01800        6.54900        1.63200
H          1.43000        7.33200        1.15300
H          2.21500        5.75800        0.90700
H          1.44500        6.11900        2.45300
C          5.43300        8.43000        1.55700
O          6.28900        7.78600        2.15200
N          5.57300        9.73500        1.37200
H          6.41400       10.17300        1.70900
H          4.89400       10.24200        0.83000
