49
0 1
H          4.88700       11.98300        2.78300
C          5.29700       12.14300        3.77900
H          5.25100       13.19900        4.03700
H          6.33200       11.80400        3.80600
C          4.49000       11.34600        4.77700
O          5.02000       10.42800        5.39400
N          3.21100       11.69400        4.90700
H          2.85400       12.40100        4.28200
C          2.21700       11.03300        5.76300
H          2.60200       10.05900        6.06600
C          1.94500       11.88000        7.02300
H          1.60500       12.86600        6.70000
H          1.13100       11.42100        7.58500
C          3.14700       12.05800        7.97100
H          3.99000       12.48200        7.42600
C          2.77000       13.02800        9.09200
H          1.93700       12.63000        9.67100
H          3.62600       13.17800        9.75100
H          2.48700       13.99000        8.66600
C          3.57800       10.73900        8.61700
H          2.74000       10.28400        9.14500
H          3.94500       10.05400        7.85400
H          4.38900       10.92400        9.32000
C          0.92500       10.77200        4.97200
O          0.66400       11.42900        3.96400
N          0.12500        9.79900        5.42000
H          0.34300        9.36400        6.30200
C         -0.88800        9.13200        4.58900
H         -1.14300        9.78800        3.75600
C         -0.30100        7.82800        4.00400
H         -0.39800        7.03600        4.74900
H         -0.89000        7.53200        3.13500
C          1.16300        7.92900        3.60700
C          1.53200        8.56700        2.40700
H          0.77200        8.91400        1.72100
C          2.89000        8.82000        2.13300
H          3.18300        9.34200        1.23400
C          3.87800        8.44800        3.06700
O          5.17300        8.79900        2.86700
H          5.59200        8.99700        3.71200
C          3.51100        7.78100        4.25400
H          4.27100        7.51000        4.97200
C          2.15600        7.51200        4.51700
H          1.87600        7.03200        5.44500
C         -2.17600        8.84700        5.37400
O         -2.15000        8.64600        6.58300
N         -3.31700        8.79100        4.70100
H         -4.16000        8.59600        5.21700
H         -3.33200        8.95300        3.70800
