45
0 1
H          6.92600        7.56700        7.03000
C          6.73900        8.58200        6.68500
H          7.38400        9.27200        7.22900
H          5.69800        8.84700        6.85400
C          7.05500        8.67600        5.21200
O          7.91400        9.45000        4.81300
N          6.33100        7.90900        4.39500
H          5.63400        7.31300        4.81100
C          6.57800        7.76400        2.94800
H          7.61600        7.45900        2.81100
C          5.66500        6.65700        2.38000
H          4.62800        6.98000        2.48600
H          5.86900        6.55800        1.31300
C          5.81600        5.26600        3.02900
H          5.58200        5.33400        4.09200
C          4.82900        4.29100        2.38800
H          3.81100        4.66100        2.51000
H          5.04600        4.18300        1.32400
H          4.90600        3.31600        2.86900
C          7.22600        4.69400        2.87100
H          7.26300        3.68500        3.28200
H          7.49900        4.66100        1.81600
H          7.94500        5.30900        3.41000
C          6.42300        9.05900        2.12200
O          6.79900        9.07900        0.95500
N          5.89900       10.13700        2.71400
H          5.65300       10.05600        3.68500
C          5.82500       11.46600        2.09000
H          5.53200       11.34100        1.04600
C          4.75300       12.32000        2.79100
H          5.07400       12.52200        3.81400
H          4.66900       13.27700        2.27500
C          3.36200       11.66700        2.84000
H          3.41000       10.79800        3.49600
H          2.67000       12.37700        3.29400
S          2.66100       11.12800        1.25400
C          2.55400       12.70500        0.36500
H          1.96100       13.41400        0.94200
H          3.55300       13.10800        0.20300
H          2.07800       12.54100       -0.60200
C          7.17100       12.22000        2.07900
O          7.27200       13.29000        1.49300
N          8.21100       11.71800        2.73600
H          9.08000       12.22200        2.70800
H          8.12400       10.84900        3.24600
