52
0 1
H         13.82400       -0.67900       -6.16900
C         12.96800       -1.33200       -6.00900
H         13.30700       -2.36400       -5.92000
H         12.27300       -1.24600       -6.84100
C         12.26900       -0.93500       -4.73000
O         12.16600       -1.73700       -3.81100
N         11.78600        0.30500       -4.67700
H         11.88200        0.89400       -5.49100
C         11.05600        0.87100       -3.53800
H         10.50400        0.06200       -3.05400
C         12.07700        1.42900       -2.51900
H         12.81400        0.64500       -2.33900
H         12.61000        2.27300       -2.95900
C         11.46700        1.83800       -1.16100
H         10.50000        1.35800       -1.04000
C         12.35700        1.39300        0.00000
H         12.45900        0.30800       -0.01600
H         13.34300        1.85100       -0.08100
H         11.89700        1.68100        0.94600
C         11.28900        3.35300       -1.04200
H         10.67500        3.72900       -1.85500
H         10.79300        3.58800       -0.10000
H         12.25900        3.85000       -1.07100
C         10.03000        1.91000       -4.02400
O         10.20000        2.50800       -5.08600
N          8.96800        2.12400       -3.24700
H          8.93200        1.62100       -2.37200
C          7.83100        3.02600       -3.50900
H          7.49100        2.85700       -4.53100
C          6.69100        2.61800       -2.55800
H          5.85200        3.30700       -2.67000
H          6.33200        1.63300       -2.85900
C          7.08300        2.54000       -1.11000
C          7.03800        3.56500       -0.23100
H          6.67600        4.56000       -0.46800
N          7.57400        3.16400        0.97800
H          7.65100        3.77500        1.77900
C          8.02200        1.86200        0.92800
C          8.67300        1.03500        1.85500
H          8.91200        1.40200        2.84100
C          9.01100       -0.27700        1.47900
H          9.51400       -0.92900        2.18000
C          8.68700       -0.74500        0.19300
H          8.94300       -1.75800       -0.08700
C          8.03100        0.09400       -0.73000
H          7.78100       -0.28400       -1.71000
C          7.69100        1.42300       -0.38900
C          8.17100        4.53600       -3.41900
O          7.43000        5.33400       -2.85700
N          9.30400        4.97100       -3.95200
H          9.51900        5.95100       -3.89100
H          9.89600        4.32200       -4.45400
