48
0 1
H         -2.36500        5.67700       -1.35900
C         -3.30200        5.82400       -0.82600
H         -3.35900        5.14700        0.02400
H         -4.13800        5.63800       -1.49900
C         -3.37800        7.25100       -0.33400
O         -4.28700        7.98000       -0.70600
N         -2.41400        7.64300        0.49700
H         -1.67100        6.99100        0.70300
C         -2.27300        8.98800        1.06600
H         -2.79400        9.70400        0.42800
C         -2.88000        9.04000        2.48600
H         -2.39800        8.26500        3.08500
H         -2.63100       10.00100        2.93700
C         -4.40700        8.85200        2.57500
H         -4.69700        7.91900        2.09300
C         -4.82300        8.77300        4.04500
H         -4.56000        9.69700        4.56100
H         -5.90000        8.61700        4.11300
H         -4.31900        7.93400        4.52500
C         -5.17100       10.01400        1.93600
H         -6.24200        9.86500        2.06900
H         -4.87800       10.95900        2.39300
H         -4.96900       10.04800        0.86600
C         -0.79300        9.40000        1.10100
O          0.09400        8.54800        1.14200
N         -0.52900       10.70800        1.11600
H         -1.30000       11.36000        1.12400
C          0.81600       11.28600        1.18100
H          1.45500       10.62400        1.76700
C          1.39400       11.38000       -0.24200
H          1.34300       10.39600       -0.71000
H          0.77300       12.05600       -0.83300
C          2.83500       11.85000       -0.29400
C          3.87100       10.96600        0.06200
H          3.64000        9.94700        0.34200
C          5.20800       11.40300        0.05000
H          6.00200       10.72100        0.31800
C          5.51200       12.72600       -0.31800
H          6.54000       13.06100       -0.33200
C          4.47900       13.61000       -0.67600
H          4.71400       14.62600       -0.96300
C          3.14200       13.17400       -0.66500
H          2.35200       13.85900       -0.93700
C          0.78800       12.65400        1.88500
O         -0.25000       13.30200        1.96000
N          1.91300       13.11700        2.41400
H          2.77300       12.60400        2.30600
H          1.88900       14.01400        2.87100
