42
0 1
H         11.53200       11.11500        1.56100
C         11.30600       10.60800        2.49600
H         11.46300       11.28400        3.33500
H         11.95200        9.73800        2.60400
C          9.86700       10.15100        2.48500
O          9.60100        8.96200        2.60000
N          8.94300       11.10400        2.34400
H          9.26900       12.05400        2.28500
C          7.48800       10.88900        2.36900
H          7.02300       11.87000        2.46100
C          6.98900       10.27800        1.03700
H          7.42700        9.28500        0.92300
H          5.90600       10.16000        1.09500
C          7.32400       11.09000       -0.22900
H          8.40400       11.21000       -0.31300
C          6.83100       10.33700       -1.46400
H          7.09600       10.89000       -2.36500
H          7.30300        9.35500       -1.50900
H          5.74800       10.21300       -1.42400
C          6.67200       12.47500       -0.22700
H          5.59300       12.38100       -0.10400
H          7.07800       13.08200        0.58000
H          6.88100       12.98000       -1.17000
C          7.02900       10.13700        3.63500
O          6.96000       10.73900        4.70100
N          6.71100        8.84400        3.53100
H          6.83100        8.39300        2.63600
C          6.27900        7.98900        4.65300
H          5.74500        8.60400        5.37600
C          5.31100        6.90200        4.15700
H          5.01100        6.27400        4.99600
C          4.04600        7.48900        3.52800
H          3.55300        8.14800        4.24200
H          4.29200        8.04900        2.62600
H          3.36700        6.67800        3.26700
O          5.93600        6.10000        3.18000
H          6.51300        5.48200        3.63800
C          7.44000        7.33500        5.41700
O          7.21000        6.56800        6.34300
N          8.69200        7.57000        5.04600
H          8.88500        8.16400        4.25000
H          9.43600        7.13000        5.56100
