39
0 1
H          8.04800       11.23100       -5.98700
C          8.39600       10.64800       -5.13500
H          8.48600       11.29300       -4.26300
H          9.36100       10.20200       -5.36900
C          7.39500        9.55500       -4.84600
O          6.37700        9.45500       -5.52300
N          7.67500        8.73700       -3.83100
H          8.50900        8.91000       -3.29500
C          6.77800        7.66400       -3.39200
H          6.60500        7.00300       -4.24100
C          7.47200        6.85700       -2.27600
H          8.38800        6.42100       -2.67700
H          7.74800        7.54600       -1.47600
C          6.61100        5.73500       -1.66100
H          5.70400        6.15800       -1.23200
C          6.22000        4.67200       -2.69200
H          5.67200        3.87000       -2.19800
H          5.57400        5.10300       -3.45400
H          7.11300        4.25800       -3.16100
C          7.39300        5.04600       -0.54300
H          7.65800        5.77600        0.22200
H          6.77500        4.27400       -0.08300
H          8.30100        4.59100       -0.93900
C          5.42400        8.24200       -2.94300
O          5.35800        8.98400       -1.96800
N          4.35100        7.89200       -3.66100
H          4.50600        7.31000       -4.46900
C          2.99900        8.44900       -3.48100
H          2.38600        8.02600       -4.27600
C          2.38200        7.96300       -2.16000
H          2.51800        6.88400       -2.06900
H          2.87200        8.45500       -1.31900
O          1.00200        8.25400       -2.13700
H          0.91900        9.21400       -2.25700
C          2.89600        9.98100       -3.66000
O          1.94300       10.60600       -3.20100
N          3.84400       10.62200       -4.33300
H          3.76700       11.62000       -4.43100
H          4.63400       10.11800       -4.71400
