42
0 1
H         12.19600       10.46800        2.27000
C         11.32000       10.12000        1.72400
H         10.79300        9.37800        2.32300
H         11.63000        9.68600        0.77600
C         10.40400       11.29200        1.47100
O         10.66900       12.39500        1.93100
N          9.30200       11.05000        0.75800
H          9.15200       10.11100        0.42800
C          8.30000       12.08000        0.42400
H          8.81300       12.92100       -0.04400
C          7.27800       11.50300       -0.57700
H          6.74700       10.68300       -0.09100
H          6.54600       12.28100       -0.80300
C          7.86700       10.99100       -1.90600
H          8.58000       10.19200       -1.70400
C          6.74600       10.41800       -2.77400
H          6.24400        9.61000       -2.24300
H          6.02100       11.19700       -3.01300
H          7.16300       10.02100       -3.70000
C          8.57100       12.09200       -2.70100
H          9.44300       12.44900       -2.15500
H          8.90700       11.69900       -3.66000
H          7.88800       12.92500       -2.87400
C          7.57900       12.66400        1.65700
O          6.94300       13.70800        1.56500
N          7.69500       12.00800        2.81300
H          8.23900       11.15600        2.80900
C          7.24500       12.49200        4.11900
H          6.27900       12.98500        3.99600
C          7.06500       11.26300        5.02700
H          6.65900       11.57300        5.99000
H          6.35900       10.56900        4.57100
C          8.38300       10.54100        5.23900
O          8.80900        9.74100        4.42400
N          9.09400       10.85100        6.29600
H          9.98100       10.39400        6.39700
H          8.79200       11.60400        6.89500
C          8.19700       13.52600        4.76900
O          8.02000       13.87400        5.93200
N          9.25000       13.97500        4.09700
H          9.86200       14.63400        4.54600
H          9.45200       13.63000        3.16800
