42
0 1
H          2.54500        4.14700        3.87700
C          2.26200        4.47100        2.87700
H          2.56700        5.50400        2.72000
H          1.18200        4.38800        2.76200
C          2.93500        3.58600        1.85600
O          2.25600        2.92100        1.07800
N          4.27000        3.57300        1.86600
H          4.74000        4.12700        2.56400
C          5.10400        2.74300        0.98500
H          4.76900        2.90300       -0.04200
C          6.57000        3.21900        1.08600
H          6.56600        4.30900        1.12400
H          7.01000        2.86000        2.01700
C          7.46800        2.81300       -0.10200
H          7.02800        3.20000       -1.02100
C          8.84600        3.45200        0.07300
H          8.74700        4.53500        0.14600
H          9.32300        3.07100        0.97600
H          9.47300        3.22000       -0.78800
C          7.67000        1.30500       -0.26000
H          8.41500        1.10800       -1.03100
H          8.00500        0.87100        0.68300
H          6.74100        0.82800       -0.56800
C          4.90300        1.25300        1.32400
O          5.59200        0.67800        2.16300
N          3.89200        0.65600        0.70000
H          3.34500        1.22100        0.06600
C          3.37800       -0.67600        1.03400
H          3.55200       -0.86600        2.09300
C          1.86000       -0.71100        0.80300
H          1.64300       -0.47500       -0.24000
C          1.22900       -2.05800        1.15200
H          1.58700       -2.83000        0.47200
H          1.47300       -2.32900        2.18000
H          0.14600       -1.98300        1.05200
O          1.24300        0.25100        1.63100
H          1.54300        1.13400        1.36400
C          4.09400       -1.75800        0.22600
O          4.11200       -1.72500       -0.99800
N          4.67300       -2.75100        0.88700
H          4.68000       -2.75400        1.89300
H          5.14800       -3.46100        0.35400
