45
0 1
H          6.52700        6.42800        7.44300
C          6.34200        7.27900        6.79100
H          5.31800        7.62600        6.92300
H          6.50200        6.99400        5.75200
C          7.28700        8.39900        7.15300
O          6.85300        9.45300        7.60000
N          8.58500        8.17300        6.94700
H          8.85000        7.28500        6.55400
C          9.65600        9.12300        7.29900
H          9.51900        9.42200        8.33900
C         11.02700        8.42800        7.16300
H         11.17400        8.16300        6.11500
H         11.80300        9.14700        7.43200
C         11.22100        7.16400        8.02400
H         10.47400        6.41800        7.74800
C         12.60400        6.57100        7.75800
H         12.73100        5.65600        8.33700
H         12.70700        6.33200        6.70000
H         13.37900        7.28400        8.04100
C         11.10300        7.44900        9.52200
H         11.80900        8.22700        9.81200
H         10.09100        7.77200        9.76400
H         11.31600        6.54200       10.08900
C          9.63300       10.43500        6.48700
O         10.33900       11.37800        6.82900
N          8.82400       10.50900        5.42700
H          8.25800        9.70100        5.20500
C          8.54500       11.72900        4.66100
H          9.46700       12.29900        4.54400
C          8.03700       11.30900        3.27400
H          7.89100       12.19900        2.66100
H          8.79300       10.69100        2.78800
C          6.74400       10.53200        3.33200
N          6.61600        9.19700        3.72900
C          5.29900        8.93900        3.70900
H          4.85800        7.98500        3.96500
N          4.60800       10.03100        3.34000
H          3.60200       10.09400        3.27200
C          5.50300       11.04900        3.10400
H          5.28300       12.07300        2.83100
C          7.52700       12.66600        5.34200
O          7.26200       13.75200        4.84100
N          6.91500       12.27700        6.45500
H          7.09900       11.36300        6.84700
H          6.25800       12.90500        6.88500
