45
1 1
H         10.15700        4.35900        5.16000
C         10.57700        4.28000        4.15900
H          9.90100        4.76000        3.45100
H         10.69900        3.23200        3.89000
C         11.91500        4.98100        4.11600
O         12.09400        5.91100        3.34000
N         12.87300        4.49900        4.91800
H         12.60500        3.71100        5.49000
C         14.19100        5.11700        5.20400
H         14.00800        6.04400        5.75100
C         14.95700        4.15100        6.14400
H         14.36600        4.04900        7.05600
H         15.01200        3.16100        5.68700
C         16.37700        4.59000        6.56600
H         16.43300        5.67800        6.57800
H         16.55300        4.25400        7.58900
C         17.49300        3.98900        5.68100
H         17.73800        3.00000        6.07500
H         17.14800        3.85300        4.65600
C         18.76600        4.85000        5.68100
H         18.90200        5.27100        6.68100
H         19.62600        4.20700        5.46600
N         18.69800        5.93000        4.66400
H         19.41900        6.62300        4.79300
H         18.79800        5.54800        3.72200
H         17.78200        6.37800        4.67300
C         15.03100        5.53600        3.98100
O         16.00700        6.27000        4.14600
N         14.71300        5.07100        2.77400
H         13.85500        4.55000        2.68800
C         15.46900        5.38300        1.55800
H         15.95200        6.35100        1.71300
C         16.56800        4.31700        1.36800
H         16.68400        3.70900        2.26300
H         16.31900        3.64800        0.54400
C         17.89500        4.98600        1.09300
O         18.71700        5.13900        1.98700
N         18.09600        5.46800       -0.10800
H         17.35500        5.40600       -0.79800
H         18.97300        5.91400       -0.30600
C         14.60600        5.59200        0.29700
O         15.12700        5.52400       -0.81000
N         13.30700        5.83600        0.43300
H         12.76000        5.97600       -0.40100
H         12.89200        5.94400        1.34900
