53
2 1
H         13.31200       12.02100       -1.03300
C         12.49200       11.31700       -1.17300
H         12.28100       10.82700       -0.22400
H         12.78100       10.56900       -1.91100
C         11.26600       12.06100       -1.64900
O         10.22900       12.01500       -0.98800
N         11.38400       12.72000       -2.80700
H         12.29500       12.69100       -3.24600
C         10.37600       13.62600       -3.40100
H         10.19500       14.43500       -2.69000
C         10.98500       14.23600       -4.68800
H         11.78200       14.92800       -4.40500
H         11.44200       13.43400       -5.27100
C         10.00700       14.96900       -5.62700
H         10.56100       15.31900       -6.50000
H          9.28000       14.24600       -5.99300
C          9.28900       16.17700       -4.99600
H          9.10400       16.01100       -3.93600
H          9.94100       17.04900       -5.08000
C          7.95000       16.48400       -5.68400
H          7.57700       17.43300       -5.28600
H          8.11700       16.61600       -6.75800
N          6.94600       15.41400       -5.44000
H          7.18600       14.55300       -5.93100
H          6.93800       15.14300       -4.46100
H          6.01900       15.69300       -5.72900
C          9.00200       12.98500       -3.66300
O          7.99200       13.66400       -3.47300
N          8.96800       11.71200       -4.08400
H          9.86700       11.26800       -4.19300
C          7.76900       10.93100       -4.48400
H          8.11600        9.94700       -4.80400
C          6.83100       10.70200       -3.27400
H          6.41800       11.66400       -2.96400
H          5.99500       10.07000       -3.57900
C          7.52700       10.03900       -2.07200
H          7.75700        9.00000       -2.31300
H          8.46300       10.54800       -1.87400
C          6.67100       10.09200       -0.79600
H          6.22700       11.08300       -0.68100
H          5.86100        9.36700       -0.89000
C          7.49900        9.76100        0.45700
H          6.80900        9.55000        1.28000
H          8.07400        8.85000        0.26600
N          8.40700       10.87600        0.84400
H          7.88100       11.70400        1.08800
H          8.97900       10.61900        1.63900
H          9.03500       11.13500        0.08200
C          7.01300       11.51400       -5.69800
O          7.12500       12.69300       -6.03000
N          6.22800       10.69300       -6.37700
H          5.73600       11.05200       -7.18000
H          6.13700        9.72800       -6.10600
