53
2 1
H          4.32100        7.46500        0.07600
C          5.40900        7.50000        0.06500
H          5.77200        7.17900       -0.91100
H          5.79500        6.83100        0.83300
C          5.87900        8.90900        0.33900
O          5.05500        9.81400        0.48200
N          7.20100        9.09400        0.40900
H          7.78000        8.28400        0.24300
C          7.87100       10.39100        0.61800
H          7.45300       10.83700        1.52200
C          9.37900       10.13800        0.85000
H          9.49600        9.49700        1.72500
H          9.79500        9.61800       -0.01600
C         10.17000       11.43700        1.07500
H         10.13900       12.00600        0.15100
H          9.69600       12.01000        1.87400
C         11.65000       11.22700        1.42200
H         11.72300       10.57700        2.29700
H         12.15600       10.73600        0.58900
C         12.34600       12.56300        1.74500
H         11.86600       12.99900        2.62600
H         13.38700       12.35100        2.01100
N         12.30300       13.53400        0.61700
H         12.74700       13.15100       -0.20700
H         11.34200       13.77900        0.37300
H         12.77900       14.39100        0.86600
C          7.61000       11.37000       -0.54400
O          7.43700       10.96000       -1.68500
N          7.62000       12.67700       -0.24900
H          7.78200       12.92700        0.71400
C          7.57000       13.78000       -1.23100
H          7.51200       13.35600       -2.23700
C          6.29900       14.63800       -1.01600
H          6.20900       14.92900        0.03200
H          6.40300       15.55400       -1.59900
C          4.99600       13.96200       -1.49500
H          4.27400       14.74400       -1.73600
H          5.20100       13.40900       -2.41300
C          4.34000       13.02500       -0.46700
H          5.07700       12.32800       -0.08300
H          3.95100       13.61500        0.36500
C          3.20400       12.22400       -1.11700
H          2.39500       12.90600       -1.39700
H          3.59100       11.76300       -2.03200
N          2.70400       11.16300       -0.20700
H          2.01000       10.58700       -0.66500
H          3.48100       10.56000        0.07100
H          2.30400       11.55800        0.63200
C          8.87000       14.60800       -1.21800
O          9.74700       14.41800       -0.37100
N          9.03300       15.50900       -2.17400
H          9.87200       16.06700       -2.18300
H          8.31800       15.64700       -2.87000
