38
1 1
H         -4.27300       12.80000        0.21100
C         -4.75100       11.94300       -0.26200
H         -5.70900       12.25200       -0.68000
H         -4.91400       11.15600        0.47200
C         -3.87300       11.42700       -1.37700
O         -4.28500       11.40000       -2.53100
N         -2.65100       10.99800       -1.04200
H         -2.39600       11.04600       -0.06700
C         -1.65700       10.48600       -2.00400
H         -1.69200       11.14300       -2.87600
C         -0.24000       10.60400       -1.39100
H         -0.21400       11.49600       -0.76100
H         -0.04000        9.75500       -0.73600
C          0.90300       10.77300       -2.41700
H          0.73000       11.70300       -2.96200
H          1.83900       10.88800       -1.86900
C          1.08100        9.64800       -3.44900
H          0.16000        9.54800       -4.02400
H          1.87200        9.93100       -4.14700
C          1.45500        8.31100       -2.79200
H          2.53400        8.28400       -2.61100
H          0.94800        8.24600       -1.82500
N          1.02000        7.16600       -3.62600
H          0.01100        7.23000       -3.78000
H          1.45600        7.17800       -4.53700
H          1.19800        6.28600       -3.16400
C         -2.02900        9.07500       -2.50300
O         -1.38400        8.08700       -2.15300
N         -3.06600        8.98600       -3.33500
H         -3.59500        9.84100       -3.48800
C         -3.55400        7.75000       -3.95900
H         -3.71500        6.99500       -3.18800
H         -4.51800        7.95800       -4.42400
C         -2.61500        7.15800       -5.02300
O         -1.39500        7.32100       -4.98300
N         -3.16700        6.44000       -5.99100
H         -4.16500        6.30600       -6.02200
H         -2.57200        6.04900       -6.70300
