51
1 1
H          3.76600       -5.17200       -3.73400
C          3.61400       -4.56800       -2.83900
H          4.20500       -4.98200       -2.02300
H          2.55800       -4.58300       -2.57100
C          4.05200       -3.15000       -3.11400
O          4.51000       -2.84700       -4.21100
N          3.90900       -2.26900       -2.11800
H          3.53200       -2.63100       -1.25300
C          4.29800       -0.83700       -2.13600
H          3.73200       -0.38500       -1.31900
C          5.78200       -0.62600       -1.72100
H          6.01500        0.44000       -1.73000
H          5.83600       -0.92200       -0.67200
C          6.91900       -1.39800       -2.43500
H          7.61600       -1.71500       -1.65800
H          6.55300       -2.31500       -2.88500
C          7.76400       -0.62000       -3.46300
H          8.23700        0.21900       -2.94900
H          8.56300       -1.27600       -3.81200
C          7.01900       -0.06800       -4.68300
H          6.31600        0.69200       -4.34100
H          7.73600        0.44200       -5.33300
N          6.30500       -1.11600       -5.45000
H          5.64100       -0.68200       -6.09300
H          6.93200       -1.71300       -5.96500
H          5.72800       -1.69500       -4.84400
C          3.79600        0.00100       -3.33200
O          4.36000        1.04900       -3.61800
N          2.72100       -0.43500       -3.99500
H          2.32700       -1.30800       -3.69000
C          2.03700        0.26200       -5.10100
H          1.23700       -0.39500       -5.44200
C          1.35000        1.53600       -4.56200
H          2.10300        2.31400       -4.42900
H          0.63900        1.89900       -5.30600
C          0.60600        1.34200       -3.25200
C          1.15600        1.82800       -2.04900
H          2.09200        2.36900       -2.05900
C          0.48500        1.62000       -0.83100
H          0.90100        2.00500        0.09000
C         -0.73700        0.92600       -0.81100
H         -1.26000        0.77600        0.12400
C         -1.29000        0.44200       -2.01000
H         -2.23700       -0.08100       -1.99400
C         -0.62000        0.65000       -3.22900
H         -1.05400        0.28100       -4.14700
C          2.91900        0.52100       -6.34500
O          4.03100        0.01000       -6.47200
N          2.42200        1.26800       -7.32300
H          1.51100        1.68800       -7.23200
H          2.98600        1.42500       -8.14300
