42
1 1
H          8.69900       -3.72100       -2.19900
C          9.13300       -2.72300       -2.16000
H          9.73400       -2.55700       -3.05400
H          9.76200       -2.62500       -1.27800
C          8.02800       -1.69400       -2.11400
O          7.92900       -0.85000       -2.99700
N          7.18800       -1.74900       -1.07500
H          7.34400       -2.46800       -0.38500
C          6.06000       -0.81800       -0.88900
H          5.53000       -0.75900       -1.84200
C          5.08500       -1.38600        0.16800
H          5.10000       -2.47500        0.09300
H          5.41200       -1.13500        1.17700
C          3.61700       -0.96400       -0.03800
H          3.32700       -1.25000       -1.05100
H          3.00100       -1.55100        0.64500
C          3.25400        0.51900        0.15500
H          3.85300        1.15100       -0.50200
H          2.21700        0.63300       -0.16500
C          3.33100        0.99700        1.61500
H          2.45400        1.62200        1.80800
H          3.27500        0.13100        2.28100
N          4.55200        1.79300        1.88700
H          4.57700        2.15200        2.82900
H          5.39800        1.25300        1.71100
H          4.62000        2.57100        1.23100
C          6.58100        0.58900       -0.56200
O          6.79600        0.91600        0.60600
N          6.75500        1.41500       -1.58900
H          6.61000        1.03000       -2.51300
C          7.26200        2.79500       -1.53000
H          8.22500        2.78600       -1.02000
C          7.50300        3.26900       -2.97100
H          7.95800        4.26000       -2.96800
H          8.18400        2.57500       -3.46800
O          6.27900        3.31000       -3.67500
H          6.45200        3.50300       -4.60400
C          6.34300        3.77200       -0.76500
O          5.30400        3.40600       -0.21200
N          6.73300        5.03600       -0.65500
H          6.13300        5.68400       -0.17000
H          7.58200        5.35100       -1.09400
