42
1 1
H          0.42700       -9.15800       10.96000
C          0.79900       -9.03000        9.94400
H         -0.04500       -8.88200        9.27000
H          1.35400       -9.91600        9.63900
C          1.69800       -7.81800        9.88400
O          1.42200       -6.88300        9.13900
N          2.79200       -7.83800       10.65700
H          2.92900       -8.66600       11.21900
C          3.77500       -6.74100       10.80300
H          3.18800       -5.82300       10.86600
C          4.50300       -6.90800       12.16000
H          3.75200       -6.83300       12.94900
H          4.92100       -7.91500       12.21000
C          5.63900       -5.92200       12.50500
H          5.86700       -6.02200       13.56800
H          6.53900       -6.24700       11.98600
C          5.37200       -4.43000       12.20900
H          4.63200       -4.29900       11.42100
H          4.97800       -3.96100       13.11300
C          6.66100       -3.71200       11.78500
H          6.48900       -2.63200       11.81500
H          7.44700       -3.95200       12.50700
N          7.07400       -4.11500       10.41600
H          6.40800       -3.78600        9.71700
H          7.98900       -3.76500       10.17200
H          7.05600       -5.12900       10.31100
C          4.67800       -6.55200        9.56200
O          5.90700       -6.54800        9.63700
N          4.03900       -6.34100        8.41800
H          3.02900       -6.34800        8.47800
C          4.61100       -5.95500        7.12200
H          5.38300       -6.67300        6.84500
C          3.48400       -6.04300        6.08000
H          3.87900       -5.81500        5.09000
H          3.07900       -7.05600        6.06200
O          2.45100       -5.12800        6.39000
H          1.77500       -5.56400        6.92600
C          5.25700       -4.55100        7.14300
O          5.44800       -3.93700        8.19600
N          5.67600       -4.03200        5.99600
H          5.51200       -4.51500        5.12700
H          6.07800       -3.10800        6.00300
