55
1 1
H         10.24600       -9.05600       -3.06000
C         10.53500       -8.03600       -3.31000
H          9.96500       -7.69000       -4.17100
H         11.59800       -8.01200       -3.54900
C         10.27400       -7.13000       -2.13000
O         11.19600       -6.50900       -1.62200
N          9.00700       -7.04900       -1.70700
H          8.34200       -7.61200       -2.21800
C          8.48400       -6.25400       -0.56900
H          7.40000       -6.26600       -0.68700
C          8.76400       -6.94800        0.78400
H          8.07200       -6.52100        1.50900
H          8.52600       -8.01000        0.70900
C         10.21400       -6.79200        1.29600
H         10.81700       -7.60000        0.87900
H         10.64400       -5.85800        0.93900
C         10.35900       -6.81200        2.82700
H         10.05800       -7.79600        3.19300
H         11.41600       -6.68200        3.06800
C          9.54600       -5.74100        3.58000
H          8.48600       -5.99900        3.51300
H          9.82600       -5.77600        4.63700
N          9.75300       -4.37000        3.04800
H         10.72800       -4.09000        3.06400
H          9.44500       -4.30400        2.07800
H          9.22700       -3.68100        3.56500
C          8.82100       -4.74700       -0.54900
O          8.67400       -4.11700        0.50200
N          9.25400       -4.16700       -1.66400
H          9.35400       -4.74200       -2.48700
C          9.59200       -2.74600       -1.81800
H          9.09100       -2.16700       -1.04100
C         11.11000       -2.54000       -1.67700
H         11.59100       -2.97700       -2.55400
H         11.31600       -1.46900       -1.70400
C         11.78600       -3.09900       -0.45500
C         12.67600       -4.11500       -0.46800
H         12.97700       -4.65900       -1.35800
N         13.15200       -4.34700        0.80600
H         13.87000       -5.03200        1.00300
C         12.59300       -3.48100        1.71600
C         12.75600       -3.31400        3.10000
H         13.47400       -3.91700        3.64000
C         12.02900       -2.30800        3.76000
H         12.18500       -2.12700        4.81700
C         11.12800       -1.50900        3.03300
H         10.59100       -0.71400        3.53600
C         10.96300       -1.69400        1.64500
H         10.29200       -1.05000        1.09400
C         11.69800       -2.67600        0.94300
C          9.09800       -2.22800       -3.17900
O          8.79100       -3.01000       -4.07100
N          9.01700       -0.91800       -3.36600
H          9.28300       -0.27400       -2.64000
H          8.69900       -0.58900       -4.26400
