45
1 1
H          9.01400       10.40200        0.96200
C          8.04600        9.99900        1.25900
H          7.26200       10.72300        1.04100
H          8.05600        9.79200        2.32900
C          7.77800        8.71700        0.50800
O          7.59400        7.67700        1.12700
N          7.73700        8.80700       -0.82800
H          7.89200        9.73400       -1.19700
C          7.54800        7.72100       -1.82400
H          7.32300        8.22300       -2.76600
C          8.86500        6.94400       -2.06100
H          8.75800        6.39400       -2.99500
H          9.68800        7.64800       -2.20100
C          9.22700        5.96400       -0.92300
H          9.82700        6.49900       -0.18600
H          8.32800        5.62900       -0.41400
C          9.99700        4.70700       -1.36400
H         10.95900        5.01500       -1.77700
H         10.20200        4.11400       -0.47200
C          9.28900        3.80400       -2.39500
H          9.32400        4.29400       -3.37300
H          9.86200        2.87500       -2.47500
N          7.87600        3.49400       -2.05300
H          7.49600        2.75500       -2.62500
H          7.73900        3.25500       -1.07300
H          7.28200        4.31100       -2.18900
C          6.35200        6.76500       -1.63000
O          6.28700        5.75500       -2.33100
N          5.45100        7.02100       -0.68700
H          5.56100        7.87100       -0.15400
C          4.36300        6.12800       -0.27500
H          4.20600        5.36300       -1.03700
C          4.73800        5.43500        1.05300
H          4.79900        6.19700        1.83100
H          3.94500        4.74300        1.33600
C          6.04300        4.65000        1.03400
O          6.30600        3.82000        0.17500
N          6.91800        4.88600        1.98100
H          7.76500        4.35200        1.99400
H          6.79300        5.68300        2.58400
C          3.05200        6.92300       -0.13000
O          3.07400        8.12700        0.09100
N          1.90200        6.26800       -0.22200
H          1.05000        6.79600       -0.11600
H          1.88300        5.27700       -0.39400
