41
1 1
H          7.53000        7.33900        8.42400
C          7.77600        6.95300        7.43500
H          6.86300        6.63800        6.93200
H          8.45500        6.10800        7.53800
C          8.44700        8.04500        6.63500
O          8.62800        9.15300        7.12600
N          8.82000        7.74600        5.38600
H          8.63300        6.81400        5.04900
C          9.48700        8.71100        4.49700
H         10.31000        9.16400        5.05500
C         10.08600        7.98800        3.27400
H         10.68300        7.13700        3.60700
H          9.27500        7.60300        2.65500
C         10.99600        8.93700        2.46400
H         10.71300        9.97700        2.62900
H         12.01600        8.83100        2.83600
C         10.99900        8.68000        0.94800
H         11.72000        9.36000        0.49000
H         11.34800        7.66200        0.76500
C          9.63800        8.86600        0.24900
H          9.79500        8.76000       -0.82900
H          8.96600        8.06300        0.56500
N          9.00500       10.17900        0.53800
H          8.20000       10.34300       -0.04700
H          8.67200       10.21200        1.50300
H          9.65200       10.95300        0.44900
C          8.53500        9.84400        4.08000
O          7.86000        9.74000        3.05300
N          8.55500       10.94900        4.82100
H          9.04100       10.89100        5.70600
C          7.83700       12.18900        4.51700
H          6.76800       11.96900        4.50600
C          8.10600       13.16300        5.67500
H          9.16400       13.42800        5.70400
H          7.51500       14.07100        5.55200
H          7.82900       12.69900        6.62300
C          8.19700       12.80800        3.14000
O          9.03400       12.30800        2.38500
N          7.54400       13.90200        2.76900
H          6.86100       14.31800        3.38300
H          7.77800       14.33300        1.88900
