42
1 1
H          2.06600        7.56000       -2.63700
C          2.13700        6.93000       -3.52400
H          1.26100        7.08800       -4.15100
H          2.18400        5.88600       -3.21700
C          3.38700        7.28800       -4.29300
O          4.12300        8.18000       -3.88100
N          3.61600        6.59400       -5.41500
H          2.92200        5.89600       -5.64500
C          4.77300        6.71200       -6.33400
H          4.89200        5.71000       -6.74900
C          4.46000        7.58300       -7.58500
H          5.09500        7.19800       -8.38500
H          3.43500        7.37600       -7.89500
C          4.65900        9.11400       -7.60500
H          5.70500        9.35400       -7.42600
H          4.46600        9.44600       -8.62600
C          3.74600        9.94500       -6.68500
H          3.01400       10.46200       -7.30800
H          3.18400        9.30300       -6.01300
C          4.52300       10.99900       -5.88000
H          5.09300       11.62200       -6.57500
H          3.80200       11.63900       -5.36300
N          5.43200       10.37100       -4.88900
H          6.09300        9.74600       -5.34800
H          5.93600       11.05300       -4.34300
H          4.90500        9.75900       -4.26600
C          6.11600        6.94800       -5.61300
O          6.70100        8.03100       -5.65900
N          6.55600        5.93800       -4.86600
H          6.03100        5.07400       -4.86800
C          7.80000        5.90900       -4.09300
H          8.58800        6.40900       -4.65700
C          7.56800        6.66000       -2.77000
H          7.05000        7.60200       -2.95800
H          6.94500        6.05000       -2.11300
S          9.14600        7.01600       -1.94400
H          9.56300        8.00300       -2.74500
C          8.22200        4.44000       -3.87100
O          7.42900        3.53400       -4.10400
N          9.44600        4.17400       -3.43700
H         10.07300        4.92300       -3.19100
H          9.70100        3.21000       -3.29300
