47
1 1
H          1.78400       -0.02900       -2.33300
C          2.74900        0.35000       -2.00200
H          3.03900       -0.14400       -1.07600
H          2.67300        1.42400       -1.82800
C          3.78800        0.09200       -3.06700
O          4.37700        1.02900       -3.59600
N          4.02100       -1.18600       -3.38800
H          3.46300       -1.87700       -2.90600
C          4.96200       -1.67700       -4.42500
H          5.14400       -2.72200       -4.17000
C          4.29700       -1.74900       -5.83100
H          5.02400       -2.11000       -6.56100
H          3.54900       -2.54100       -5.75900
C          3.55500       -0.52300       -6.41800
H          2.62800       -0.89800       -6.85500
H          3.24600        0.16400       -5.63900
C          4.26000        0.26200       -7.54100
H          4.40900       -0.41200       -8.38700
H          3.58900        1.05500       -7.87600
C          5.61600        0.88500       -7.19100
H          6.32600        0.07600       -7.00900
H          5.98800        1.43700       -8.05800
N          5.55500        1.78300       -6.01200
H          6.49600        1.95400       -5.65600
H          5.10600        2.66100       -6.21700
H          5.06900        1.34600       -5.23200
C          6.39600       -1.10400       -4.37400
O          7.06900       -1.07000       -5.39400
N          6.85000       -0.67300       -3.19000
H          6.19600       -0.72300       -2.42800
C          8.19100       -0.11600       -2.87500
H          8.10200        0.32800       -1.88400
C          9.27000       -1.22000       -2.72000
H         10.16100       -0.74400       -2.30800
C          8.84100       -2.28600       -1.70400
H          9.67300       -2.96600       -1.51600
H          8.56300       -1.81300       -0.76200
H          7.99900       -2.86500       -2.08400
C          9.69800       -1.92000       -4.01500
H         10.57400       -2.53900       -3.82200
H          8.90000       -2.56200       -4.38600
H          9.95300       -1.18700       -4.78000
C          8.63200        1.06300       -3.77200
O          7.85000        1.62900       -4.53200
N          9.86700        1.53100       -3.64400
H         10.51900        1.09600       -3.01100
H         10.14300        2.31800       -4.21000
