42
1 1
H         14.19300        9.16100       -1.90900
C         13.61200        8.91200       -2.79500
H         14.27900        8.66800       -3.62000
H         12.99600        9.76700       -3.07300
C         12.71800        7.73000       -2.50200
O         11.50200        7.85500       -2.60200
N         13.33900        6.60200       -2.12900
H         14.34500        6.67500       -2.08700
C         12.76700        5.26500       -1.82900
H         13.63300        4.60200       -1.79500
C         12.17700        5.20100       -0.39600
H         12.01900        4.15400       -0.13100
H         12.94800        5.57000        0.28200
C         10.88300        5.97500       -0.06500
H         10.81700        6.02700        1.02300
H         10.96100        7.00600       -0.39700
C          9.57200        5.33300       -0.56000
H          9.77100        4.44600       -1.15700
H          9.01900        4.99500        0.31900
C          8.66200        6.29900       -1.33500
H          7.65000        5.88200       -1.34000
H          8.63200        7.25900       -0.81100
N          9.11100        6.48800       -2.73500
H          8.50600        7.10900       -3.24800
H         10.05400        6.87700       -2.76900
H          9.15600        5.59200       -3.21800
C         11.89600        4.63900       -2.93500
O         11.43800        5.31000       -3.85400
N         11.66400        3.32900       -2.84300
H         12.09300        2.82400       -2.08400
C         10.97700        2.51800       -3.85900
H         11.59100        2.52600       -4.76200
C         10.90100        1.06800       -3.35100
H         10.22400        1.01200       -2.49500
H         10.51700        0.42000       -4.14100
S         12.55200        0.49000       -2.85400
H         12.23300       -0.78700       -2.60400
C          9.57500        3.03500       -4.25600
O          8.92800        3.78400       -3.52500
N          9.07200        2.63100       -5.41500
H          8.15300        2.95100       -5.67900
H          9.59900        2.02300       -6.02100
