47
1 1
H          4.79900       13.47400        3.55300
C          3.73500       13.39600        3.33400
H          3.31300       14.39700        3.24600
H          3.23300       12.86300        4.14000
C          3.53800       12.65400        2.03400
O          2.96600       13.20200        1.09500
N          4.01000       11.40300        1.97800
H          4.44600       11.05400        2.82100
C          3.95400       10.49000        0.81400
H          4.74500        9.75500        0.97900
C          2.65200        9.64600        0.80200
H          2.72200        8.90300        0.00600
H          2.65300        9.07800        1.73500
C          1.27500       10.34400        0.72300
H          0.57600        9.73600        1.30100
H          1.30300       11.30900        1.22200
C          0.67900       10.47100       -0.69400
H          1.38100       10.10700       -1.44500
H         -0.19600        9.82100       -0.75000
C          0.23400       11.89500       -1.05600
H         -0.27900       11.85300       -2.02200
H         -0.48100       12.25000       -0.30800
N          1.38800       12.82000       -1.14800
H          1.14100       13.70700       -1.56100
H          1.78900       12.99200       -0.22600
H          2.14200       12.38400       -1.67500
C          4.37900       11.15300       -0.51000
O          3.61300       11.23700       -1.46800
N          5.60600       11.67300       -0.52600
H          6.17400       11.55300        0.30200
C          6.30000       12.29000       -1.67300
H          5.90800       11.86900       -2.59900
C          6.11800       13.82500       -1.72200
H          6.74000       14.20500       -2.53400
C          4.67500       14.22500       -2.04500
H          4.63100       15.29900       -2.22900
H          4.33800       13.70100       -2.93900
H          4.02700       13.98700       -1.20500
C          6.54700       14.53600       -0.43100
H          7.58700       14.30300       -0.19900
H          6.46000       15.61500       -0.56100
H          5.91700       14.23000        0.40400
C          7.79200       11.93900       -1.60500
O          8.29400       11.58000       -0.54600
N          8.51800       12.02900       -2.71000
H          8.10500       12.32400       -3.57900
H          9.49700       11.79500       -2.65100
