48
1 1
H         -4.77500       -2.96600        9.05200
C         -4.33600       -2.31900        9.81100
H         -4.06000       -2.91600       10.67800
H         -5.06200       -1.56000       10.09900
C         -3.10700       -1.64900        9.24200
O         -2.77000       -1.88900        8.08700
N         -2.44800       -0.82900       10.07200
H         -2.85200       -0.75200       10.99400
C         -1.25300        0.01200        9.81100
H         -1.18800        0.67300       10.67600
C          0.05500       -0.82000        9.87600
H          0.89900       -0.13700        9.97700
H          0.02200       -1.39000       10.80600
C          0.38700       -1.82100        8.75100
H          1.17300       -2.47500        9.13200
H         -0.46100       -2.47000        8.55800
C          0.91800       -1.20100        7.44400
H          0.89900       -0.11400        7.49000
H          1.96600       -1.48700        7.34500
C          0.17900       -1.69300        6.18900
H          0.79800       -1.46200        5.31800
H          0.06200       -2.77900        6.24800
N         -1.14300       -1.04100        6.02900
H         -1.62600       -1.35700        5.20400
H         -1.74600       -1.22600        6.83100
H         -1.03400       -0.02900        5.98200
C         -1.37200        1.00300        8.63600
O         -2.25800        0.90000        7.79300
N         -0.47500        1.98700        8.58000
H          0.28400        1.97200        9.25400
C         -0.49600        3.10800        7.62800
H         -1.42600        3.65100        7.80100
C          0.66100        4.08200        7.94600
H          0.46800        4.99900        7.38700
H          0.62900        4.35000        9.00300
C          2.09200        3.62400        7.58000
H          2.10700        3.18400        6.58400
H          2.72000        4.51400        7.54600
C          2.74600        2.65100        8.56400
O          2.13300        2.09200        9.45700
N          4.02800        2.39500        8.43200
H          4.58000        2.85100        7.72800
H          4.43300        1.78400        9.12100
C         -0.50400        2.68200        6.14400
O         -0.12300        1.57000        5.78300
N         -0.92800        3.56600        5.25100
H         -1.24500        4.47700        5.54300
H         -0.93300        3.30500        4.27800
