47
1 1
H          7.57400        8.63400        3.67000
C          6.57000        8.61100        3.24800
H          6.11700        9.59700        3.34400
H          5.96100        7.88000        3.77700
C          6.64600        8.24600        1.78400
O          6.22900        9.01700        0.92800
N          7.17400        7.05800        1.47700
H          7.48800        6.47400        2.23800
C          7.32000        6.56100        0.09600
H          7.67400        7.39700       -0.51100
C          8.41000        5.46400        0.06100
H          9.18800        5.73200        0.77900
H          7.99800        4.50900        0.38800
C          9.12000        5.30500       -1.30100
H          9.61900        6.24700       -1.53400
H          9.89500        4.54500       -1.19400
C          8.23600        4.92900       -2.50100
H          7.48200        5.70300       -2.64700
H          8.85800        4.90200       -3.39800
C          7.56800        3.56000       -2.31900
H          8.31600        2.77300       -2.45400
H          7.18700        3.48900       -1.29600
N          6.43900        3.38900       -3.26200
H          5.95800        2.51700       -3.09800
H          5.76400        4.14300       -3.12200
H          6.74800        3.43700       -4.22200
C          5.95600        6.13300       -0.47700
O          5.63000        4.94700       -0.50200
N          5.17900        7.10600       -0.95900
H          5.50700        8.05100       -0.78700
C          3.81200        6.95700       -1.50700
H          3.14500        6.74600       -0.67100
C          3.34700        8.28800       -2.14900
H          4.04800        8.56000       -2.93800
C          1.94300        8.21100       -2.76600
H          1.93500        7.53400       -3.61900
H          1.21800        7.88300       -2.02100
H          1.64700        9.19500       -3.13200
C          3.31900        9.42300       -1.11500
H          2.66800        9.16100       -0.28000
H          4.32000        9.62700       -0.73900
H          2.95100       10.34000       -1.57700
C          3.68100        5.78700       -2.50000
O          4.59700        5.46900       -3.25900
N          2.54400        5.10400       -2.50500
H          1.79600        5.36300       -1.88300
H          2.42800        4.35400       -3.16700
