55
1 1
H         11.25300        7.63200        0.22500
C         10.32800        7.13400       -0.06400
H         10.08100        6.37500        0.67700
H         10.46100        6.67000       -1.04000
C          9.21600        8.15400       -0.13800
O          9.46000        9.33000        0.11400
N          8.00700        7.68200       -0.46900
H          7.97800        6.68700       -0.63200
C          6.73500        8.41800       -0.68100
H          6.07400        7.68500       -1.14500
C          6.03800        8.76100        0.66200
H          5.00100        9.02700        0.45900
H          6.00100        7.83900        1.24500
C          6.62800        9.84900        1.58100
H          6.16500        9.72100        2.56000
H          7.68900        9.67800        1.73800
C          6.36100       11.30400        1.14900
H          5.86300       11.34300        0.18300
H          5.66700       11.74100        1.86900
C          7.62700       12.17500        1.12700
H          7.31700       13.22300        1.10200
H          8.19000       12.00500        2.04900
N          8.47700       11.89500       -0.05500
H          7.94900       12.05100       -0.91300
H          9.30400       12.47000       -0.07500
H          8.77500       10.91900       -0.07700
C          6.77600        9.55000       -1.72800
O          7.83300       10.00500       -2.14900
N          5.59600       10.00100       -2.15500
H          4.77200        9.63300       -1.70600
C          5.37100       11.01000       -3.20800
H          5.66600       10.58000       -4.16600
C          3.86600       11.31900       -3.26000
H          3.68100       12.12700       -3.97000
H          3.34500       10.43700       -3.63600
C          3.26200       11.68100       -1.93400
C          3.16700       12.93000       -1.42300
H          3.47600       13.83500       -1.93300
N          2.64700       12.86900       -0.14500
H          2.45400       13.68700        0.41800
C          2.40300       11.57000        0.24400
C          1.92400       10.99800        1.43100
H          1.66400       11.62200        2.27400
C          1.76500        9.60400        1.50100
H          1.38000        9.14700        2.40400
C          2.07500        8.80500        0.38600
H          1.92000        7.73500        0.43900
C          2.56000        9.38900       -0.80100
H          2.76100        8.76300       -1.65800
C          2.75100       10.78600       -0.89600
C          6.17300       12.31800       -3.03000
O          6.58200       12.69300       -1.93300
N          6.39800       13.05200       -4.11100
H          6.06200       12.75400       -5.01300
H          6.91400       13.91200       -4.01100
