55
1 1
H          2.75900       12.91100       -2.94800
C          3.45200       12.53800       -2.19600
H          2.89200       12.19400       -1.32700
H          4.13600       13.33000       -1.89600
C          4.23900       11.38000       -2.76400
O          4.18200       10.26900       -2.24300
N          4.99100       11.61800       -3.84300
H          5.02200       12.55700       -4.21300
C          5.83600       10.57900       -4.44700
H          5.24400        9.66600       -4.46400
C          6.20300       10.93700       -5.90100
H          5.29500       11.15700       -6.46500
H          6.82600       11.83400       -5.90100
C          6.97200        9.80300       -6.61200
H          7.37700       10.19300       -7.54700
H          7.81900        9.49800       -5.99800
C          6.09900        8.57700       -6.94300
H          5.41100        8.35100       -6.13100
H          5.50200        8.81500       -7.82500
C          6.94800        7.33300       -7.23800
H          6.33000        6.61800       -7.78900
H          7.78500        7.62100       -7.88200
N          7.44500        6.69200       -5.99400
H          8.01400        7.33100       -5.43500
H          6.67500        6.38600       -5.40500
H          8.01900        5.88700       -6.19400
C          7.06700       10.30000       -3.57500
O          8.10600       10.93400       -3.72200
N          6.95500        9.29200       -2.71400
H          6.02200        8.95500       -2.52400
C          8.07100        8.70000       -1.97100
H          8.44800        9.45200       -1.27500
C          7.55300        7.49800       -1.16000
H          8.27400        7.29400       -0.36800
H          6.61300        7.76500       -0.67400
C          7.35400        6.23200       -1.94700
C          8.14200        5.13700       -1.85500
H          8.97800        5.03100       -1.17100
N          7.73900        4.18800       -2.77200
H          8.16200        3.27100       -2.84100
C          6.67600        4.63400       -3.52500
C          5.96200        4.07100       -4.59300
H          6.21100        3.08200       -4.95400
C          4.88000        4.77700       -5.14300
H          4.28500        4.33400       -5.93300
C          4.52900        6.03300       -4.61800
H          3.65600        6.54800       -5.00100
C          5.26200        6.59600       -3.55400
H          4.93400        7.53200       -3.12500
C          6.36900        5.92200       -2.98700
C          9.22700        8.28000       -2.90300
O          9.01000        7.84600       -4.03900
N         10.46400        8.36100       -2.43400
H         10.63700        8.72700       -1.51200
H         11.22700        8.10400       -3.03900
