42
1 1
H          5.34900        2.44300        3.47600
C          5.11900        3.30800        4.09900
H          6.02100        3.62500        4.62000
H          4.35400        3.03400        4.82400
C          4.61700        4.43200        3.22500
O          4.54000        4.28200        2.00900
N          4.26700        5.56800        3.84000
H          4.39000        5.58800        4.84300
C          3.78300        6.81100        3.19100
H          3.28500        7.36600        3.98800
C          4.95200        7.74600        2.76700
H          4.54800        8.64400        2.29600
H          5.40200        8.09100        3.70000
C          6.12500        7.20900        1.91000
H          7.04000        7.61700        2.34200
H          6.22000        6.13200        1.99800
C          6.15000        7.60900        0.42200
H          6.19600        8.69800        0.36100
H          7.07000        7.22200       -0.01900
C          4.96500        7.13600       -0.42700
H          4.06400        7.63300       -0.06600
H          5.11400        7.46900       -1.45800
N          4.78200        5.66500       -0.39600
H          3.85900        5.42200       -0.75700
H          5.49000        5.17600       -0.91900
H          4.77600        5.30900        0.55700
C          2.62900        6.65100        2.17600
O          2.45700        7.49700        1.30900
N          1.81800        5.59700        2.31500
H          2.03400        4.95600        3.05800
C          0.65100        5.27400        1.47200
H          0.25000        4.32700        1.83500
C         -0.45900        6.32200        1.69400
H         -0.13900        7.29800        1.32200
H         -1.35700        6.02700        1.15000
S         -0.87700        6.44400        3.45800
H         -0.00800        7.41000        3.77600
C          0.97000        5.03300       -0.02400
O          2.11400        5.09000       -0.47100
N         -0.03400        4.70400       -0.82700
H         -0.97400        4.63500       -0.47300
H          0.16500        4.53100       -1.79900
