48
1 1
H          9.02700       14.40600       -9.11800
C          9.22400       13.59700       -8.41600
H          8.37600       12.91300       -8.39700
H          9.37200       14.01300       -7.42000
C         10.47000       12.85500       -8.83600
O         11.44300       12.81300       -8.09100
N         10.44600       12.26100      -10.03500
H          9.59800       12.37900      -10.57200
C         11.55400       11.51100      -10.67500
H         11.07200       10.91000      -11.44800
C         12.50700       12.44200      -11.47800
H         13.29400       11.84400      -11.94100
H         11.91100       12.82200      -12.30900
C         13.14300       13.68800      -10.81400
H         13.08600       14.49400      -11.54700
H         12.55800       14.02700       -9.96600
C         14.62800       13.59100      -10.41400
H         15.21100       13.37400      -11.31100
H         14.94700       14.56900      -10.05100
C         14.98000       12.54100       -9.35400
H         14.78400       11.55200       -9.77100
H         16.05400       12.58700       -9.15300
N         14.22500       12.71800       -8.09200
H         13.22500       12.80300       -8.26300
H         14.30300       11.87600       -7.52100
H         14.53300       13.51700       -7.56200
C         12.22500       10.40600       -9.82800
O         13.35500       10.03000      -10.10900
N         11.51400        9.85700       -8.83500
H         10.60700       10.25500       -8.65900
C         11.96300        8.77000       -7.93700
H         11.16100        8.58800       -7.22100
C         12.12700        7.46500       -8.75000
H         11.54800        7.53700       -9.67200
H         13.17200        7.33800       -9.03600
C         11.65700        6.22300       -8.02900
N         12.07400        5.81100       -6.76300
C         11.44300        4.65300       -6.52000
H         11.56000        4.06700       -5.61600
N         10.65800        4.32200       -7.55900
H         10.09500        3.48400       -7.62100
C         10.78100        5.29900       -8.52200
H         10.30000        5.32500       -9.49000
C         13.20100        9.12700       -7.07800
O         13.68300       10.25800       -7.07800
N         13.71400        8.20100       -6.28400
H         14.51000        8.43000       -5.71200
H         13.31400        7.27100       -6.27600
