45
1 1
H          7.22900        4.22400        3.97000
C          8.23200        4.18600        4.39300
H          8.17000        3.92000        5.44700
H          8.70700        5.15900        4.28000
C          9.03500        3.14100        3.65300
O          8.52400        2.49800        2.74600
N         10.30200        2.96200        4.04300
H         10.63300        3.53500        4.80300
C         11.23100        2.00000        3.42300
H         11.38500        2.29500        2.38600
C         12.58700        2.07400        4.15000
H         12.93200        3.11000        4.16500
H         12.44600        1.76500        5.18700
C         13.67500        1.21100        3.47900
H         13.23600        0.41300        2.88000
H         14.23100        1.85400        2.79400
C         14.66300        0.58800        4.48200
H         15.63600        0.52700        3.99100
H         14.78200        1.23400        5.35400
C         14.28600       -0.84200        4.91500
H         14.21700       -1.46500        4.01600
H         15.10000       -1.24000        5.52900
N         13.00600       -0.93000        5.66300
H         12.22200       -0.65600        5.07000
H         12.81300       -1.89200        5.90700
H         13.00200       -0.35600        6.49300
C         10.66700        0.56200        3.48100
O         10.59000        0.03000        4.59300
N         10.39800       -0.11500        2.34500
C         10.39200        0.43300        0.99300
H         11.40100        0.39300        0.58000
H         10.01400        1.45500        0.96300
C          9.46600       -0.47200        0.18700
H          9.72000       -0.47300       -0.87300
H          8.42900       -0.16600        0.33800
C          9.70400       -1.83300        0.83400
H         10.62300       -2.26600        0.43100
H          8.86200       -2.50700        0.67300
C          9.88600       -1.49200        2.31800
H          8.90500       -1.49400        2.79600
C         10.77500       -2.53100        3.02600
O         11.91700       -2.27000        3.40400
N         10.26400       -3.73900        3.22000
H         10.83600       -4.44400        3.65700
H          9.33000       -3.95200        2.90800
