41
1 1
H         12.15100       13.21200        5.44900
C         11.14400       13.38800        5.07300
H         11.18700       13.54700        3.99600
H         10.71900       14.26900        5.55000
C         10.27900       12.18400        5.36300
O          9.76500       11.57300        4.43100
N         10.12000       11.87300        6.65700
H         10.60200       12.48900        7.29500
C          9.39000       10.73500        7.27100
H          9.70800       10.74400        8.31400
C          7.86200       10.99800        7.33400
H          7.41100       10.27300        8.01300
H          7.72900       11.97400        7.80400
C          7.03200       11.01500        6.03300
H          6.08300       11.49800        6.27200
H          7.49900       11.65200        5.28900
C          6.69000        9.63300        5.44200
H          7.16900        8.83800        6.00900
H          5.61400        9.48500        5.55200
C          7.02600        9.49500        3.94800
H          6.45400        8.65200        3.54900
H          6.70700       10.40100        3.42600
N          8.46900        9.24800        3.72000
H          8.77100        8.41500        4.22400
H          8.68600        9.13600        2.74200
H          9.03600       10.01800        4.07700
C          9.80700        9.32900        6.79600
O         10.44700        9.16200        5.76300
N          9.44600        8.30200        7.56800
H          8.90700        8.49800        8.39500
C          9.85300        6.90700        7.34600
H         10.94200        6.86000        7.41400
C          9.27400        6.06300        8.49100
H          8.18400        6.07500        8.45200
H          9.61900        5.03100        8.40600
H          9.60600        6.45800        9.45300
C          9.46000        6.33200        5.96200
O          8.63300        6.88300        5.23700
N         10.04800        5.20900        5.57000
H         10.72400        4.75200        6.16100
H          9.79300        4.81700        4.67800
