48
1 1
H          7.87600       -0.20600        6.25700
C          7.18500       -1.04300        6.17100
H          7.25900       -1.67600        7.05400
H          7.43400       -1.63000        5.28700
C          5.77200       -0.52700        6.03700
O          5.10900       -0.78400        5.04000
N          5.30100        0.22800        7.03500
H          5.92600        0.40000        7.80900
C          3.93100        0.77900        7.11600
H          3.26700       -0.01300        6.77100
C          3.60800        1.04700        8.60500
H          3.79100        0.11800        9.15000
H          4.32200        1.78100        8.98400
C          2.19500        1.52700        9.00700
H          2.15200        1.47500       10.09600
H          2.07900        2.58200        8.76300
C          0.98300        0.73700        8.47200
H          1.15800       -0.32800        8.63900
H          0.11500        1.01600        9.07300
C          0.61900        0.95500        6.99300
H          1.39900        0.51700        6.36500
H         -0.30700        0.41400        6.77600
N          0.45900        2.38800        6.64300
H          1.31400        2.89700        6.86300
H          0.36800        2.48700        5.63100
H         -0.32700        2.81800        7.10700
C          3.70000        1.97400        6.16300
O          3.18000        3.01000        6.57000
N          4.03000        1.80800        4.88300
H          4.41500        0.90500        4.62600
C          3.82800        2.78900        3.80700
H          4.35600        3.70200        4.08900
C          4.44200        2.23500        2.50000
H          4.49200        1.14600        2.54800
H          3.80800        2.48600        1.64800
C          5.85100        2.78900        2.22300
H          6.48700        2.62800        3.09300
H          6.27800        2.23800        1.38500
C          5.85500        4.27800        1.86500
O          4.86400        4.98200        1.97900
N          6.96900        4.82000        1.43000
H          7.80200        4.27600        1.30700
H          6.92300        5.79800        1.19700
C          2.35500        3.20000        3.59400
O          1.41900        2.57100        4.09200
N          2.12800        4.28200        2.86200
H          2.91300        4.78100        2.45600
H          1.18100        4.57100        2.68200
