42
1 1
H         13.33200        4.57300       14.76300
C         13.74700        4.23200       13.81500
H         13.60600        3.15500       13.73000
H         14.81200        4.45900       13.77900
C         13.04300        4.92200       12.67200
O         12.45200        4.25600       11.82600
N         13.10200        6.25900       12.65500
H         13.62900        6.68100       13.40700
C         12.55100        7.19000       11.63600
H         12.56300        8.16900       12.11600
C         13.51500        7.35400       10.43000
H         13.15900        8.16900        9.79700
H         14.47600        7.67800       10.83400
C         13.79700        6.12800        9.53600
H         14.72000        6.32200        8.98800
H         13.99700        5.26000       10.15700
C         12.70900        5.81500        8.49200
H         11.72500        6.11100        8.84200
H         12.92000        6.39600        7.59300
C         12.66900        4.32600        8.13100
H         12.13700        4.21600        7.18200
H         13.69200        3.96300        7.99500
N         11.96800        3.54800        9.18100
H         12.38200        3.70400       10.09900
H         11.00900        3.88400        9.27900
H         11.94700        2.56000        8.98200
C         11.05700        7.04800       11.27300
O         10.60300        7.69300       10.33600
N         10.28000        6.27000       12.03400
H         10.73900        5.75000       12.76300
C          8.85800        5.96600       11.77600
H          8.52600        5.28900       12.56300
C          8.01300        7.24500       11.93200
H          8.33000        7.77700       12.83100
H          8.15800        7.89500       11.06800
O          6.64100        6.92500       12.05700
H          6.14800        7.73200       12.24300
C          8.61900        5.21600       10.44600
O          9.55100        4.71400        9.81500
N          7.37500        5.04500       10.02300
H          7.20600        4.54700        9.16600
H          6.62000        5.46000       10.55500
