38
1 1
H         10.24100        5.79100       -7.08500
C          9.71200        5.89800       -6.13900
H         10.36400        5.57600       -5.32700
H          8.81500        5.28100       -6.14800
C          9.33400        7.34500       -5.93200
O          9.76300        7.96000       -4.95800
N          8.52500        7.89100       -6.84900
H          8.22500        7.28200       -7.59800
C          8.03400        9.28900       -6.86700
H          7.76600        9.49400       -7.90500
C          6.69900        9.44200       -6.09100
H          6.31800       10.45300       -6.24200
H          5.98500        8.78100       -6.58700
C          6.63600        9.09500       -4.58600
H          5.64100        8.68900       -4.39400
H          7.33000        8.29500       -4.34400
C          6.81400       10.28900       -3.62500
H          7.03500       11.20300       -4.17700
H          5.86300       10.45800       -3.11700
C          7.88800       10.06700       -2.54900
H          7.84600       10.90900       -1.85300
H          7.65700        9.15400       -1.99200
N          9.24400        9.98000       -3.14100
H          9.37000       10.72100       -3.82900
H          9.97200       10.02200       -2.44500
H          9.35400        9.11700       -3.67300
C          9.13700       10.32800       -6.58700
O          9.06700       11.11200       -5.64200
N         10.20500       10.26900       -7.37900
H         10.22700        9.56000       -8.10000
C         11.39300       11.12100       -7.29300
H         11.12300       12.15200       -7.52400
H         11.80600       11.08300       -6.28500
C         12.46900       10.65800       -8.28200
O         12.30700        9.63600       -8.93900
N         13.56700       11.38900       -8.40500
H         13.69100       12.23200       -7.86900
H         14.26900       11.08200       -9.06100
