48
1 1
H         11.08600        3.17500       -1.73100
C         10.38400        3.09800       -0.90100
H         10.90300        2.70400       -0.02900
H          9.56600        2.43600       -1.17700
C          9.84100        4.47200       -0.58600
O         10.19800        5.43500       -1.25200
N          8.96700        4.55000        0.42600
H          8.77000        3.67400        0.88600
C          8.27200        5.74700        0.96400
H          7.58800        5.38500        1.73300
C          9.29300        6.66300        1.68400
H          9.77000        6.07500        2.47000
H         10.07600        6.97400        0.98900
C          8.67200        7.91600        2.34100
H          7.66600        7.67600        2.68900
H          9.25900        8.16900        3.22500
C          8.64700        9.16200        1.42700
H          9.60300        9.67700        1.53800
H          8.55800        8.88300        0.37700
C          7.51500       10.13800        1.79100
H          7.45800       10.21000        2.88100
H          7.76900       11.12900        1.40200
N          6.20600        9.71100        1.23000
H          6.18100        9.80400        0.21400
H          6.04900        8.71500        1.37700
H          5.43200       10.23700        1.60800
C          7.36800        6.53400        0.00100
O          6.37600        7.08100        0.48000
N          7.72600        6.65400       -1.27900
H          8.56300        6.14400       -1.53400
C          7.23200        7.60500       -2.29300
H          7.88100        8.48000       -2.25300
C          7.43500        7.01000       -3.70100
H          6.86900        7.59300       -4.43000
H          8.49000        7.11100       -3.95900
C          7.06500        5.55100       -3.84600
N          5.77700        5.02500       -3.74900
C          5.89700        3.70700       -3.96800
H          5.06800        3.01100       -3.98600
N          7.18400        3.38200       -4.17900
H          7.52200        2.45700       -4.40700
C          7.93800        4.53300       -4.10100
H          9.00700        4.62700       -4.24000
C          5.82400        8.17600       -2.05000
O          5.71200        9.25500       -1.46600
N          4.75900        7.48700       -2.42700
H          4.88200        6.59400       -2.89100
H          3.84100        7.86500       -2.26300
