42
1 1
H          3.05400        4.11600        6.98800
C          3.34100        3.99800        8.03200
H          2.54200        3.49300        8.57200
H          3.52100        4.97900        8.46700
C          4.60500        3.17400        8.10600
O          5.12600        2.74700        7.08200
N          5.09900        2.92700        9.32400
H          4.59000        3.31100       10.10600
C          6.34600        2.18500        9.60700
H          7.07300        2.51900        8.86400
C          6.87600        2.63000       10.99300
H          7.11500        3.69400       10.92700
H          6.07100        2.52700       11.72300
C          8.11300        1.91100       11.57200
H          8.49300        2.50400       12.40500
H          7.78000        0.97300       12.01400
C          9.27900        1.64900       10.59500
H          8.93800        1.59000        9.56300
H          9.98400        2.47900       10.66400
C         10.00000        0.33900       10.94300
H         10.94700        0.30000       10.39600
H         10.22600        0.34000       12.01400
N          9.16900       -0.84200       10.59000
H          9.55400       -1.70300       10.94700
H          8.21300       -0.72900       10.92500
H          9.06500       -0.93100        9.57900
C          6.21200        0.66100        9.38200
O          6.46200       -0.15000       10.27400
N          5.86000        0.27400        8.15700
H          5.67000        1.01800        7.49200
C          5.76000       -1.11300        7.67800
H          5.06700       -1.65000        8.32800
C          5.14700       -1.09400        6.27000
H          4.24400       -0.48000        6.28100
H          5.85900       -0.66100        5.56500
O          4.80100       -2.40100        5.85900
H          4.32200       -2.35000        5.02300
C          7.10700       -1.87100        7.71400
O          8.15300       -1.32200        8.07000
N          7.11400       -3.15700        7.39600
H          6.26100       -3.57400        7.04800
H          7.98400       -3.66300        7.39100
