55
1 1
H          7.47700       18.76500        0.45800
C          7.20100       17.98700       -0.25200
H          7.31400       18.36700       -1.26700
H          6.16600       17.68700       -0.09500
C          8.10500       16.79000       -0.07600
O          8.77800       16.37600       -1.01000
N          8.12500       16.21000        1.12900
H          7.55500       16.61900        1.85500
C          8.95200       15.02600        1.43700
H          9.97400       15.25700        1.13900
C          8.91100       14.76700        2.95500
H          9.28200       15.65300        3.47300
H          7.86600       14.63600        3.24400
C          9.68400       13.53800        3.47800
H          9.40400       13.42200        4.52600
H          9.34100       12.64300        2.96700
C         11.22500       13.60100        3.43700
H         11.54100       14.58700        3.78300
H         11.60400       12.87600        4.16000
C         11.90800       13.31100        2.08800
H         11.61700       14.07800        1.36500
H         12.98900       13.39100        2.23600
N         11.57800       11.96800        1.54500
H         10.62400       11.97600        1.18100
H         12.16300       11.73600        0.75500
H         11.63500       11.23300        2.23600
C          8.53500       13.78900        0.62800
O          9.39700       12.97300        0.31000
N          7.25300       13.63900        0.30200
H          6.61400       14.38700        0.53000
C          6.70500       12.54300       -0.50300
H          7.47900       12.16700       -1.17300
C          6.22600       11.38800        0.39700
H          5.30100       11.70500        0.88300
H          5.97100       10.54100       -0.24200
C          7.15700       10.88600        1.46900
C          6.89000       10.91700        2.79500
H          5.97900       11.31400        3.23000
N          7.91700       10.31900        3.49800
H          7.88500       10.16300        4.49700
C          8.91200        9.87300        2.65600
C         10.13100        9.21400        2.88400
H         10.42200        8.94100        3.88900
C         10.92700        8.84600        1.78600
H         11.83900        8.28200        1.93800
C         10.50700        9.16900        0.48200
H         11.10400        8.85600       -0.36700
C          9.29000        9.84700        0.26800
H          8.97000       10.06900       -0.74100
C          8.45200       10.21200        1.34600
C          5.54600       13.06900       -1.36400
O          4.93400       14.07800       -1.02900
N          5.21300       12.39900       -2.45900
H          4.45000       12.75300       -3.01400
H          5.71100       11.56700       -2.72700
