51
1 1
H          0.45600       13.58900        4.53300
C          0.98200       14.13400        3.75100
H          2.05500       14.09800        3.94000
H          0.65400       15.17300        3.75200
C          0.68300       13.51200        2.40800
O          0.12600       14.18100        1.54000
N          1.04800       12.23400        2.25300
H          1.48500       11.82200        3.06600
C          0.94900       11.34300        1.06700
H          1.54700       10.46700        1.32700
C         -0.48100       10.76800        0.87300
H         -0.45700       10.05500        0.04700
H         -0.70400       10.18700        1.76900
C         -1.67900       11.72000        0.65900
H         -2.58700       11.15500        0.87800
H         -1.65100       12.51900        1.39300
C         -1.84300       12.28400       -0.76600
H         -0.88300       12.43100       -1.24800
H         -2.38000       11.54300       -1.36000
C         -2.63400       13.60200       -0.79300
H         -2.97000       13.78400       -1.81800
H         -3.52400       13.48300       -0.16700
N         -1.82600       14.76000       -0.32600
H         -1.05700       14.97300       -0.96100
H         -2.38200       15.59800       -0.23300
H         -1.37600       14.56600        0.56700
C          1.63700       11.80600       -0.23000
O          2.32500       11.00800       -0.84900
N          1.46700       13.06200       -0.63700
H          0.94100       13.66200       -0.01800
C          2.04300       13.68900       -1.83400
H          3.12700       13.56100       -1.82300
C          1.47600       13.05200       -3.11900
H          1.66800       11.97900       -3.11400
H          0.39400       13.19000       -3.14300
C          2.07500       13.62200       -4.39000
C          3.34400       13.18800       -4.81900
H          3.87600       12.42900       -4.26100
C          3.92200       13.73400       -5.97800
H          4.89400       13.39400       -6.31100
C          3.23300       14.71500       -6.71300
H          3.67700       15.13000       -7.60800
C          1.96500       15.14900       -6.28900
H          1.43600       15.89900       -6.86000
C          1.38600       14.60300       -5.13000
H          0.41100       14.94300       -4.81100
C          1.70800       15.18900       -1.82900
O          0.60000       15.56700       -1.44000
N          2.61100       16.04700       -2.28200
H          3.49000       15.71600       -2.64900
H          2.38400       17.02800       -2.29800
