48
1 1
H         -2.31700        5.85100       -5.94300
C         -2.21300        4.93800       -5.35800
H         -1.31800        4.40700       -5.68000
H         -3.08300        4.30200       -5.50600
C         -2.08200        5.28900       -3.89400
O         -1.06900        4.96400       -3.28500
N         -3.12100        5.93700       -3.35100
H         -3.88100        6.11900       -3.98900
C         -3.28300        6.46900       -1.97500
H         -4.16400        7.10900       -2.03400
C         -3.69100        5.36100       -0.96900
H         -4.06500        5.83500       -0.06000
H         -4.54300        4.83600       -1.40600
C         -2.66600        4.28500       -0.55700
H         -3.23000        3.47000       -0.10100
H         -2.19400        3.85400       -1.43500
C         -1.61200        4.72800        0.47600
H         -1.71400        5.78600        0.71000
H         -1.81200        4.18900        1.40300
C         -0.16800        4.41400        0.05500
H          0.46400        4.47200        0.94600
H         -0.12400        3.39100       -0.33000
N          0.34000        5.36900       -0.95800
H          1.29100        5.17400       -1.22300
H         -0.23000        5.35000       -1.80400
H          0.28600        6.32100       -0.59900
C         -2.19200        7.44600       -1.49300
O         -1.12500        7.57500       -2.08600
N         -2.47700        8.15700       -0.40400
H         -3.32100        7.91800        0.10400
C         -1.65500        9.22300        0.19200
H         -1.56300       10.03100       -0.53600
C         -2.41000        9.76400        1.41900
H         -1.82900       10.56400        1.88100
H         -3.35400       10.19900        1.08600
C         -2.72500        8.71500        2.46200
N         -3.59100        7.63300        2.27800
C         -3.62600        6.98700        3.45400
H         -4.22700        6.10900        3.65500
N         -2.82700        7.59500        4.34800
H         -2.70900        7.31400        5.31200
C         -2.25100        8.68900        3.74100
H         -1.57900        9.40700        4.19200
C         -0.22300        8.79800        0.57200
O          0.10900        7.61900        0.66600
N          0.66300        9.75800        0.79800
H          1.60300        9.49500        1.04900
H          0.40200       10.72700        0.71700
