45
1 1
H          7.42600        2.19300       -3.53900
C          8.03600        2.65700       -2.76700
H          8.95100        3.04500       -3.21600
H          8.29200        1.92500       -2.00300
C          7.27500        3.80100       -2.13900
O          7.72000        4.94200       -2.18700
N          6.11800        3.50600       -1.53700
H          5.82300        2.54200       -1.53500
C          5.27100        4.51900       -0.88800
H          5.07700        5.31200       -1.61400
C          3.92100        3.89900       -0.47900
H          3.46700        3.40500       -1.34000
H          4.09800        3.14100        0.28400
C          2.94600        4.97900        0.03800
H          3.49200        5.82300        0.45400
H          2.38100        5.36500       -0.81200
C          1.95300        4.49300        1.10700
H          1.32900        5.34300        1.39100
H          1.29600        3.74300        0.66200
C          2.57600        3.89900        2.38600
H          1.78200        3.80700        3.13200
H          2.93800        2.89100        2.16500
N          3.69200        4.71200        2.93600
H          3.50900        5.71200        2.90200
H          3.92300        4.44900        3.88200
H          4.53800        4.59600        2.37900
C          5.98500        5.14800        0.31800
O          6.02800        4.54600        1.39400
N          6.43200        6.39100        0.17000
H          6.37200        6.80000       -0.75100
C          7.03000        7.23200        1.22300
H          7.86900        6.69300        1.66200
C          7.58100        8.52500        0.59200
H          8.00700        9.15600        1.37300
C          8.66700        8.26300       -0.45100
H          9.46800        7.67100       -0.00800
H          8.26100        7.72300       -1.30800
H          9.08300        9.21000       -0.79500
O          6.53800        9.22100       -0.04300
H          6.91300        9.99100       -0.48200
C          6.05000        7.56500        2.36900
O          4.89400        7.13500        2.39800
N          6.50400        8.28400        3.38800
H          7.44800        8.63400        3.39000
H          5.86700        8.51800        4.13200
