50
1 1
H         -5.09300        6.23300       -7.40500
C         -5.08200        6.46800       -6.34200
H         -6.05900        6.83700       -6.03300
H         -4.33000        7.23300       -6.15200
C         -4.73300        5.22800       -5.55300
O         -3.73500        5.21700       -4.84500
N         -5.56500        4.18600       -5.68000
H         -6.34300        4.33600       -6.30500
C         -5.48300        2.85200       -5.03300
H         -6.38200        2.31700       -5.33800
C         -4.27700        2.06700       -5.61100
H         -4.46100        1.86600       -6.66800
H         -3.38500        2.69300       -5.54800
C         -3.94300        0.74000       -4.90100
H         -3.05700        0.31000       -5.36900
H         -3.67300        0.96100       -3.86900
C         -5.06900       -0.31200       -4.94500
H         -6.04900        0.16500       -4.94500
H         -4.98200       -0.87100       -5.87900
C         -5.01000       -1.29300       -3.76500
H         -5.74100       -2.08600       -3.95000
H         -4.01700       -1.75200       -3.72400
N         -5.32500       -0.62200       -2.47600
H         -6.11300        0.01500       -2.57700
H         -5.50300       -1.27600       -1.72900
H         -4.57200       -0.00000       -2.18000
C         -5.53100        2.81900       -3.49200
O         -6.22200        1.94700       -2.96300
N         -4.80800        3.70400       -2.80300
H         -4.27900        4.35300       -3.37600
C         -4.58800        3.80700       -1.34500
H         -3.79500        4.54900       -1.24200
C         -5.80000        4.42000       -0.59200
H         -5.43400        4.67700        0.40300
C         -6.24200        5.74100       -1.25000
H         -6.94600        6.26500       -0.60400
H         -5.37900        6.38900       -1.40600
H         -6.72400        5.54900       -2.20900
C         -6.99200        3.45700       -0.39600
H         -7.56400        3.38700       -1.32100
H         -6.62300        2.46300       -0.14500
C         -7.94100        3.89100        0.72800
H         -7.39300        3.98000        1.66700
H         -8.40800        4.84600        0.48700
H         -8.72400        3.14200        0.84700
C         -4.00900        2.54500       -0.67000
O         -4.01800        1.43700       -1.20500
N         -3.46500        2.69200        0.53100
H         -3.44000        3.59600        0.97300
H         -3.06200        1.88600        0.98100
