41
1 1
H          5.91700        5.40400       -7.06600
C          5.85400        5.86600       -6.08100
H          6.44300        6.78200       -6.07400
H          6.23700        5.17200       -5.33500
C          4.41000        6.18700       -5.77700
O          3.53400        5.92000       -6.59900
N          4.16300        6.78700       -4.60200
H          4.96900        6.97500       -4.02400
C          2.82500        7.08600       -4.03600
H          2.99000        7.55100       -3.06300
C          2.15800        8.17100       -4.92500
H          2.70100        9.09800       -4.72800
H          2.32900        7.96500       -5.97900
C          0.66500        8.49500       -4.75900
H          0.44000        8.62300       -3.69900
H          0.50700        9.46500       -5.23400
C         -0.36400        7.52900       -5.38200
H         -0.61700        6.75800       -4.66300
H         -1.28100        8.10400       -5.52100
C         -0.02200        6.89100       -6.74500
H         -0.96900        6.66700       -7.24400
H          0.51400        7.61700       -7.36500
N          0.75300        5.62600       -6.63200
H          0.80200        5.13500       -7.51200
H          1.72200        5.78100       -6.34700
H          0.33900        5.00300       -5.93800
C          2.01300        5.80800       -3.72900
O          2.23600        4.76600       -4.33200
N          1.06700        5.87600       -2.79000
H          0.91500        6.75700       -2.32900
C          0.29900        4.71700       -2.30400
H          0.99700        4.04600       -1.80000
C         -0.70200        5.22400       -1.25700
H         -1.23800        4.38200       -0.81700
H         -0.17700        5.75300       -0.46100
H         -1.42500        5.89600       -1.72400
C         -0.40900        3.88300       -3.40600
O         -0.64000        4.33900       -4.52600
N         -0.77700        2.64600       -3.10100
H         -0.59400        2.26700       -2.18600
H         -1.24200        2.09500       -3.80500
