53
2 1
H          3.62900        8.78200        1.12900
C          4.12700        9.04000        0.19500
H          3.63100        8.53500       -0.63400
H          5.16600        8.71700        0.23900
C          4.06700       10.53500       -0.01300
O          5.11000       11.19200       -0.06700
N          2.84600       11.07600       -0.12600
H          2.05400       10.45500       -0.04800
C          2.60400       12.51900       -0.30600
H          3.16000       12.82000       -1.19500
C          1.11000       12.81700       -0.56900
H          1.05600       13.77100       -1.09700
H          0.69300       12.05400       -1.23000
C          0.24400       12.92800        0.70300
H          0.18800       11.95700        1.19600
H          0.70600       13.63000        1.39300
C         -1.17600       13.43500        0.40200
H         -1.15400       14.19200       -0.38500
H         -1.77900       12.59600        0.04800
C         -1.82600       14.03400        1.66000
H         -2.90500       14.11100        1.48900
H         -1.67300       13.34200        2.49400
N         -1.27700       15.37900        1.99100
H         -1.65200       15.71400        2.87000
H         -0.26000       15.36800        2.06700
H         -1.51100       16.05000        1.27200
C          3.15200       13.34500        0.86600
O          3.33300       12.83700        1.96900
N          3.37100       14.64200        0.64100
H          3.16300       15.00300       -0.27800
C          3.82400       15.58900        1.67800
H          4.22600       15.02200        2.52100
C          4.98400       16.45000        1.12600
H          4.57500       17.20400        0.45000
H          5.45800       16.97400        1.95800
C          6.07900       15.66700        0.36100
H          5.66300       15.34100       -0.59300
H          6.89900       16.35100        0.13900
C          6.65000       14.43400        1.09100
H          7.19300       14.75000        1.98300
H          5.83600       13.78000        1.39900
C          7.58400       13.64300        0.16200
H          7.20200       13.71700       -0.86100
H          8.57800       14.10200        0.18200
N          7.65600       12.20900        0.54400
H          7.94800       12.09500        1.50500
H          6.73600       11.77600        0.43500
H          8.29400       11.70500       -0.05700
C          2.64800       16.38900        2.27200
O          1.48000       16.14800        1.94900
N          2.92600       17.31400        3.17600
H          2.17100       17.84500        3.57900
H          3.88000       17.49300        3.44300
