43
0 1
H         11.65900       11.49000        8.91200
C         12.62800       11.01900        9.06700
H         12.62800       10.47700       10.01100
H         13.40600       11.78200        9.08700
C         12.91000       10.05700        7.93900
O         13.87100       10.23400        7.20100
N         12.04900        9.05300        7.78000
H         11.29600        8.97600        8.44900
C         12.22800        7.92500        6.84500
H         13.18300        7.45100        7.07700
C         11.11800        6.87900        7.06200
H         10.15900        7.29100        6.74800
H         11.33400        6.02000        6.42500
C         11.01000        6.36600        8.50800
H         10.49900        5.40300        8.48800
H         12.01700        6.19100        8.88800
S         10.12200        7.43400        9.68500
C          8.41200        7.21500        9.12000
H          8.30200        7.58700        8.10200
H          8.14700        6.15800        9.15300
H          7.74100        7.77100        9.77600
C         12.29300        8.30900        5.35100
O         12.58700        7.45700        4.52000
N         12.03300        9.57200        5.00300
H         11.83700       10.22100        5.74700
C         12.23200       10.12400        3.65400
H         11.88900        9.38500        2.92800
C         11.36300       11.38200        3.49200
H         11.39100       11.69300        2.44800
H         10.33000       11.13300        3.74100
C         11.81900       12.55600        4.37300
H         11.89800       12.21200        5.40500
H         12.80900       12.88300        4.05400
S         10.70800       13.98900        4.36300
C         10.97600       14.60500        2.67800
H         10.64300       13.86300        1.95300
H         10.40700       15.52400        2.53500
H         12.03600       14.81200        2.52700
C         13.70700       10.42400        3.31400
O         14.01800       10.77100        2.18200
N         14.63300       10.33700        4.26200
H         14.37600       10.09500        5.21000
H         15.58800       10.53400        4.01500
