43
0 1
H         -2.82700       11.90300        1.98200
C         -1.77500       11.67100        1.81700
H         -1.28900       12.51600        1.33500
H         -1.69500       10.78600        1.18800
C         -1.11700       11.40300        3.14900
O         -1.77700       11.46600        4.17800
N          0.18400       11.10800        3.11800
H          0.61200       11.09400        2.20600
C          1.06400       10.76100        4.25500
H          2.04900       10.57200        3.82800
C          1.22000       11.97800        5.18900
H          1.41800       12.86900        4.59400
H          0.28600       12.13600        5.72900
C          2.34500       11.80800        6.21900
H          2.29800       12.64200        6.92000
H          2.16900       10.89600        6.79000
S          4.02700       11.73900        5.53600
C          4.26200       13.46100        5.02000
H          4.12200       14.12300        5.87500
H          5.27400       13.58600        4.63300
H          3.54800       13.71700        4.23800
C          0.70400        9.47100        5.02400
O          1.59300        8.67900        5.32300
N         -0.57500        9.22400        5.31600
H         -1.25300        9.93000        5.04700
C         -1.07800        8.03600        6.01800
H         -0.39200        7.83000        6.84100
C         -2.44900        8.37200        6.63500
H         -2.35200        9.28500        7.22400
H         -3.15900        8.56900        5.83000
C         -3.03800        7.28500        7.54800
H         -4.01300        7.64100        7.88000
H         -3.21100        6.37200        6.97900
S         -2.07600        6.88900        9.03800
C         -1.12400        5.45200        8.47100
H         -0.43700        5.74200        7.67700
H         -0.55000        5.04900        9.30500
H         -1.80400        4.68400        8.10000
C         -1.08800        6.78600        5.11200
O         -2.12700        6.26000        4.73400
N          0.08100        6.30600        4.71200
H          0.92900        6.79000        4.97800
H          0.09200        5.50300        4.10700
