40
0 1
H          8.04000       14.95300       -1.36400
C          7.69500       15.25500       -0.37700
H          6.62000       15.09700       -0.30200
H          7.92200       16.30600       -0.20900
C          8.38900       14.42100        0.67300
O          7.73600       13.73300        1.45000
N          9.71900       14.48100        0.70500
H         10.19300       15.07300        0.04300
C         10.53300       13.74300        1.67600
H         10.31300       12.68200        1.56200
C         12.02500       13.95700        1.37700
H         12.28300       14.99500        1.59100
H         12.60900       13.33200        2.05300
C         12.42800       13.63200       -0.05000
C         12.73100       14.66900       -0.95500
H         12.70000       15.69900       -0.63100
C         13.08400       14.36700       -2.28300
H         13.32000       15.16300       -2.97500
C         13.13500       13.02800       -2.71000
H         13.40900       12.79600       -3.73000
C         12.83600       11.99100       -1.80900
H         12.88000       10.96200       -2.13800
C         12.48400       12.29200       -0.48100
H         12.25600       11.49100        0.20700
C         10.18700       14.15700        3.11600
O         10.33900       15.31800        3.48600
N          9.71200       13.20200        3.92500
H          9.58900       12.28200        3.53500
C          9.18500       13.43100        5.28300
H          8.79300       12.47300        5.62400
C         10.32100       13.79700        6.25200
H         11.15100       13.10200        6.12000
H         10.67000       14.81100        6.04800
O          9.86300       13.71500        7.58400
H          9.10200       14.31400        7.65300
C          7.99300       14.41200        5.37000
O          7.68700       14.93500        6.43700
N          7.28200       14.67500        4.27900
H          6.51800       15.32400        4.35400
H          7.52600       14.25700        3.39100
