40
0 1
H         13.44100       -1.62500        1.53600
C         14.08900       -1.87600        2.37300
H         14.16600       -1.02800        3.05200
H         15.08100       -2.13200        2.00200
C         13.52300       -3.06200        3.11600
O         14.17000       -4.09500        3.21400
N         12.29300       -2.92800        3.61100
H         11.82300       -2.05000        3.46900
C         11.62000       -3.92800        4.45900
H         12.22400       -4.08400        5.35400
C         10.25700       -3.36000        4.89000
H          9.81600       -4.03500        5.62500
H         10.41100       -2.40200        5.39000
C          9.27000       -3.17700        3.74800
C          9.17700       -1.94200        3.07700
H          9.77200       -1.10000        3.40000
C          8.30100       -1.79400        1.98600
H          8.22700       -0.84500        1.47300
C          7.51200       -2.87900        1.56600
H          6.83700       -2.76600        0.72800
C          7.59100       -4.10800        2.24200
H          6.97900       -4.94200        1.92200
C          8.46500       -4.25600        3.33200
H          8.52300       -5.20700        3.84700
C         11.43000       -5.31500        3.81000
O         11.18200       -6.28500        4.51600
N         11.52700       -5.41400        2.47900
H         11.77200       -4.58000        1.97200
C         11.45000       -6.68200        1.73000
H         10.78900       -7.36700        2.26300
C         10.83500       -6.43400        0.34800
H         11.45500       -5.72900       -0.20900
H         10.78900       -7.37300       -0.20600
O          9.52300       -5.91800        0.47500
H          9.52500       -5.17200        1.08300
C         12.80200       -7.40500        1.58900
O         12.89200       -8.42500        0.91900
N         13.88500       -6.90100        2.17100
H         14.75400       -7.39600        2.06800
H         13.83300       -6.04600        2.70800
