49
0 1
H          2.71800        9.51200        2.84000
C          3.75300        9.55700        2.50600
H          4.34000        8.81600        3.04500
H          4.15300       10.55300        2.68200
C          3.80300        9.24700        1.03000
O          2.78200        8.96500        0.42100
N          5.00000        9.27200        0.44900
H          5.80300        9.45300        1.03000
C          5.24900        8.93600       -0.96300
H          4.39800        9.29100       -1.54700
C          6.48800        9.70900       -1.45500
H          6.67700        9.45400       -2.49800
H          6.25100       10.77400       -1.43600
C          7.76200        9.49200       -0.65300
C          8.66500        8.47300       -1.01200
H          8.45400        7.83700       -1.86100
C          9.84200        8.27400       -0.26700
H         10.53000        7.48800       -0.54600
C         10.12500        9.09900        0.83600
H         11.03200        8.94800        1.40400
C          9.23400       10.12700        1.18900
H          9.45900       10.77100        2.02800
C          8.05700       10.32500        0.44500
H          7.38300       11.12700        0.71200
C          5.31400        7.41100       -1.21800
O          6.05000        6.94100       -2.08400
N          4.58100        6.62200       -0.42900
H          3.92300        7.06400        0.20200
C          4.68700        5.16400       -0.35200
H          4.84000        4.76700       -1.35700
C          5.90800        4.78400        0.51000
H          5.84800        3.72900        0.77800
H          6.80000        4.90000       -0.10900
C          6.10000        5.60700        1.77800
C          5.29600        5.38100        2.91200
H          4.53300        4.61600        2.89300
C          5.47400        6.15700        4.07100
H          4.85100        5.98000        4.93700
C          6.45700        7.16200        4.10400
H          6.59600        7.75300        4.99800
C          7.25900        7.39300        2.97400
H          8.02000        8.16100        2.99500
C          7.08100        6.61700        1.81600
H          7.70200        6.79700        0.95100
C          3.39900        4.53700        0.20400
O          2.67700        5.14000        0.98900
N          3.10100        3.29900       -0.16600
H          3.69700        2.80000       -0.80500
H          2.25800        2.88800        0.20000
