53
0 1
H          4.31300        7.75900       -7.19700
C          3.75000        7.99500       -6.29600
H          2.75800        8.34400       -6.57100
H          4.27100        8.76400       -5.73000
C          3.62500        6.74900       -5.45500
O          4.10200        5.69200       -5.84600
N          2.96500        6.86000       -4.30200
H          2.55900        7.75200       -4.07000
C          2.82700        5.76100       -3.33000
H          3.82300        5.37500       -3.10800
C          2.23400        6.31700       -2.02400
H          2.19900        5.51200       -1.28800
H          2.91200        7.07500       -1.63000
C          0.84300        6.91500       -2.15200
C         -0.29000        6.07700       -2.16300
H         -0.17300        5.00600       -2.07000
C         -1.57700        6.62800       -2.29400
H         -2.44300        5.98100       -2.30400
C         -1.73800        8.02000       -2.40100
H         -2.72900        8.44400       -2.49500
C         -0.61200        8.86200       -2.37500
H         -0.74000        9.93300       -2.44500
C          0.67600        8.31100       -2.25400
H          1.53600        8.96400       -2.22500
C          2.00600        4.55900       -3.84100
O          2.03900        3.49200       -3.23600
N          1.27200        4.72200       -4.94400
H          1.29100        5.62900       -5.38500
C          0.55300        3.65700       -5.65200
H          0.18600        2.93000       -4.92600
C         -0.65400        4.28700       -6.36000
H         -1.20600        3.50700       -6.88800
H         -1.32300        4.69600       -5.60300
C         -0.31500        5.38300       -7.32700
C         -0.04900        5.20900       -8.64000
H         -0.07100        4.25000       -9.14900
N          0.27100        6.42400       -9.21400
H          0.50300        6.53000      -10.19200
C          0.23700        7.44700       -8.29100
C          0.47900        8.82600       -8.37900
H          0.75000        9.27200       -9.32400
C          0.35300        9.61700       -7.22400
H          0.52300       10.68400       -7.27700
C         -0.00200        9.01900       -6.00100
H         -0.11100        9.63300       -5.11800
C         -0.23900        7.63300       -5.92300
H         -0.53400        7.19100       -4.98200
C         -0.13100        6.81100       -7.06700
C          1.43400        2.87500       -6.65000
O          0.95500        1.96600       -7.31800
N          2.71000        3.20700       -6.80700
H          3.11100        3.97500       -6.28500
H          3.26400        2.68000       -7.45900
