53
0 1
H          5.27000       15.28200       -2.80500
C          4.84600       15.15800       -3.79900
H          5.64100       14.98300       -4.52000
H          4.29000       16.05400       -4.07500
C          3.90500       13.97900       -3.79400
O          2.71700       14.14100       -4.03300
N          4.44000       12.79000       -3.52200
H          5.43600       12.74500       -3.36100
C          3.68900       11.52400       -3.52200
H          2.65000       11.74900       -3.27800
C          3.69000       10.91200       -4.93900
H          3.11800        9.98300       -4.91700
H          3.14500       11.59000       -5.59800
C          5.04900       10.63800       -5.57000
C          5.71200       11.65200       -6.28900
H          5.26300       12.63200       -6.37400
C          6.94600       11.39100       -6.91300
H          7.44200       12.17100       -7.47400
C          7.52200       10.11200       -6.82500
H          8.46300        9.90600       -7.31900
C          6.86300        9.09500       -6.11300
H          7.29500        8.10500       -6.05500
C          5.62900        9.35700       -5.49000
H          5.11800        8.56800       -4.95500
C          4.17100       10.57000       -2.41200
O          4.31700        9.36500       -2.61500
N          4.47100       11.12300       -1.23000
H          4.26900       12.10200       -1.09500
C          5.21400       10.44100       -0.16100
H          5.18100        9.36700       -0.34700
C          6.69300       10.87700       -0.18500
H          6.79900       11.76100        0.44600
H          7.30100       10.08900        0.26000
C          7.25900       11.22600       -1.53200
C          7.39300       10.37300       -2.57100
H          7.12100        9.32400       -2.54900
N          7.80900       11.06600       -3.68900
H          7.84700       10.64700       -4.61300
C          7.98700       12.40400       -3.42500
C          8.36900       13.49400       -4.22000
H          8.62000       13.34700       -5.25900
C          8.43300       14.77200       -3.64100
H          8.73900       15.62300       -4.23400
C          8.09600       14.94400       -2.28600
H          8.14500       15.93000       -1.84400
C          7.69600       13.84400       -1.50200
H          7.43700       13.99100       -0.46400
C          7.64000       12.54200       -2.04700
C          4.59200       10.69000        1.21900
O          4.01400       11.74000        1.47300
N          4.73000        9.75100        2.14500
H          4.32700        9.92200        3.05200
H          5.21100        8.89300        1.93500
