49
0 1
H         19.71000        0.69800        3.58400
C         20.63400        0.82300        4.14500
H         21.20000       -0.10700        4.12500
H         20.41400        1.09000        5.17600
C         21.46400        1.91300        3.51000
O         22.58900        1.67000        3.09600
N         20.92300        3.12900        3.46400
H         20.00100        3.25100        3.85000
C         21.57600        4.31000        2.86900
H         21.81500        4.09000        1.82800
C         20.58200        5.48300        2.90500
H         21.04100        6.34400        2.41600
H         19.70200        5.21600        2.31800
C         20.14200        5.89300        4.30200
C         20.93800        6.76900        5.06600
H         21.85300        7.17200        4.65100
C         20.55000        7.12100        6.37100
H         21.16500        7.79400        6.95300
C         19.36200        6.60500        6.91600
H         19.06200        6.88200        7.91700
C         18.56000        5.73800        6.15400
H         17.63900        5.35200        6.57000
C         18.94700        5.38400        4.84900
H         18.31800        4.72800        4.26500
C         22.90100        4.71000        3.55200
O         23.69500        5.44800        2.97800
N         23.13200        4.23400        4.77600
H         22.42400        3.64000        5.17700
C         24.35900        4.40900        5.55800
H         24.79900        5.37800        5.31900
C         23.96500        4.41200        7.04600
H         24.86500        4.40400        7.66300
H         23.44400        5.34700        7.25700
C         23.06600        3.25500        7.45500
C         23.61600        1.98500        7.70800
H         24.68600        1.83600        7.64700
C         22.77600        0.90600        8.03600
H         23.20200       -0.06900        8.23100
C         21.38400        1.09400        8.11500
H         20.74200        0.26400        8.37500
C         20.83200        2.36200        7.86400
H         19.76300        2.51000        7.93400
C         21.67100        3.44000        7.53300
H         21.24200        4.41300        7.33900
C         25.44400        3.35300        5.25100
O         26.51100        3.36900        5.85300
N         25.21000        2.40600        4.35000
H         24.32600        2.36700        3.85900
H         25.93500        1.73500        4.16400
