46
0 1
H          1.26600        6.15200       -1.08700
C          2.35100        6.08800       -1.03300
H          2.76400        7.07600       -0.83300
H          2.74300        5.70300       -1.97200
C          2.73200        5.15400        0.09000
O          1.86500        4.62200        0.77300
N          4.03500        4.97000        0.30400
H          4.68500        5.50900       -0.24400
C          4.57500        4.09800        1.36100
H          4.11700        3.11300        1.25800
C          6.09200        3.94300        1.16100
H          6.45700        3.19800        1.87000
H          6.27400        3.54300        0.16200
C          6.90300        5.21500        1.34300
C          7.30400        5.61900        2.63200
H          7.02800        5.02700        3.49500
C          8.07100        6.78500        2.80200
H          8.38400        7.08400        3.79300
C          8.44800        7.54900        1.68400
H          9.05100        8.43700        1.81300
C          8.04900        7.15100        0.39600
H          8.34700        7.73200       -0.46600
C          7.27900        5.98600        0.22500
H          6.99000        5.67600       -0.76800
C          4.25300        4.58100        2.78900
O          4.43500        3.83900        3.74900
N          3.77700        5.81900        2.93200
H          3.70300        6.38500        2.09400
C          3.29500        6.41400        4.17800
H          3.99900        6.17300        4.97500
C          3.24100        7.94600        4.01300
H          2.46000        8.21500        3.29900
H          2.95800        8.36800        4.97800
C          4.57400        8.60000        3.59300
H          4.57800        9.61700        3.98400
H          5.40800        8.07000        4.05300
C          4.80800        8.69300        2.08100
O          4.19300        8.03300        1.25700
N          5.72100        9.53100        1.64600
H          5.86800        9.54300        0.65300
H          6.26500       10.07400        2.28800
C          1.91500        5.87900        4.61800
O          1.46900        6.16400        5.72300
N          1.20300        5.12800        3.78400
H          1.55800        4.90600        2.86300
H          0.31100        4.78400        4.09400
