40
0 1
H          3.94800       13.28700       -1.30000
C          3.91300       13.48500       -2.37100
H          3.01600       13.03900       -2.79600
H          4.79900       13.07000       -2.84800
C          3.87900       14.97800       -2.59000
O          3.88300       15.74500       -1.63500
N          3.85200       15.39800       -3.85300
H          3.84800       14.71300       -4.59000
C          3.76900       16.81400       -4.22000
H          4.53200       17.35200       -3.65500
C          4.06800       16.99000       -5.71600
H          3.25200       16.54900       -6.29100
H          4.08800       18.05600       -5.94500
C          5.38200       16.37700       -6.17000
C          6.60300       16.95600       -5.77500
H          6.60900       17.84300       -5.15800
C          7.82100       16.38100       -6.17900
H          8.75800       16.82600       -5.87400
C          7.82200       15.22600       -6.98100
H          8.75900       14.78500       -7.29300
C          6.60400       14.64600       -7.37900
H          6.60600       13.76100       -7.99900
C          5.38600       15.22100       -6.97500
H          4.45400       14.77300       -7.28800
C          2.40000       17.41400       -3.86100
O          1.35900       16.83400       -4.16800
N          2.39600       18.60600       -3.25900
H          3.28100       19.03700       -3.03600
C          1.19600       19.33900       -2.82700
H          0.50700       18.62800       -2.37000
C          1.60200       20.35200       -1.74800
H          0.71600       20.87000       -1.37600
H          2.07400       19.82600       -0.91700
O          2.51200       21.29200       -2.28400
H          2.01200       21.82200       -2.92300
C          0.44700       20.01100       -3.99500
O          0.28300       21.22700       -4.03800
N          0.01600       19.24600       -4.98800
H          0.18500       18.24800       -4.94900
H         -0.46200       19.67700       -5.76000
