46
0 1
H         14.39900        8.99400       -2.26100
C         14.04100       10.01900       -2.32500
H         14.71900       10.60500       -2.94300
H         13.98400       10.45700       -1.33000
C         12.66800       10.03300       -2.95400
O         12.46900       10.65900       -3.99000
N         11.71300        9.34900       -2.32700
H         11.93800        8.89700       -1.45600
C         10.31800        9.32600       -2.77900
H         10.29100        8.92900       -3.79400
C          9.50300        8.38700       -1.87800
H          9.89600        7.37300       -1.97700
H          9.63700        8.69000       -0.83900
C          8.01900        8.36800       -2.19300
C          7.12300        9.13000       -1.41800
H          7.49200        9.73200       -0.59800
C          5.74900        9.12300       -1.71600
H          5.06400        9.71000       -1.11900
C          5.26700        8.36100       -2.79500
H          4.21100        8.36000       -3.02800
C          6.16000        7.60500       -3.57400
H          5.78800        7.02100       -4.40500
C          7.53400        7.60600       -3.27200
H          8.21500        7.01900       -3.87200
C          9.72400       10.74400       -2.80500
O          9.67700       11.41600       -1.77800
N          9.28800       11.19100       -3.98900
H          9.36400       10.56900       -4.77700
C          8.79400       12.55200       -4.26300
H          8.66800       12.61800       -5.34300
C          7.39600       12.77100       -3.64800
H          7.47100       12.73600       -2.56000
H          7.03100       13.76000       -3.92200
C          6.36700       11.72500       -4.10400
H          6.69400       10.74500       -3.76000
H          5.41800       11.94100       -3.61400
S          6.07400       11.61600       -5.89500
C          5.32900       13.23700       -6.21800
H          4.45100       13.37100       -5.58500
H          6.05200       14.02600       -6.01200
H          5.02900       13.29500       -7.26500
C          9.78600       13.69000       -3.92900
O          9.40200       14.85000       -3.83700
N         11.07500       13.40800       -3.77900
H         11.70400       14.16000       -3.55600
H         11.40400       12.45500       -3.86000
