46
0 1
H         11.01500        6.51800       -2.02200
C         10.81400        7.39600       -2.63300
H         11.19000        7.23600       -3.64200
H         11.29400        8.27000       -2.19700
C          9.32200        7.62700       -2.69800
O          8.74600        7.62300       -3.77700
N          8.70200        7.82600       -1.53800
H          9.25100        7.83600       -0.69100
C          7.26600        8.07600       -1.38200
H          6.92000        8.68100       -2.22100
C          6.49700        6.74100       -1.41200
H          5.43100        6.94300       -1.30900
H          6.63300        6.28800       -2.39600
C          6.90800        5.73100       -0.35400
C          6.30600        5.75200        0.91900
H          5.54700        6.48500        1.14600
C          6.69400        4.82400        1.90000
H          6.23300        4.85000        2.87800
C          7.68100        3.86500        1.61100
H          7.97900        3.15100        2.36600
C          8.27900        3.83500        0.33900
H          9.03500        3.09600        0.11400
C          7.89200        4.76600       -0.64200
H          8.35200        4.74100       -1.62000
C          6.98800        8.87100       -0.09400
O          7.87200        9.05200        0.74500
N          5.76000        9.36700        0.06600
H          5.06800        9.17200       -0.65100
C          5.33300       10.14600        1.23400
H          6.04900       10.96100        1.35000
C          3.95700       10.79400        0.95900
H          3.78200       11.55000        1.72500
H          4.00700       11.31400        0.00100
C          2.73200        9.85500        0.94000
H          2.53100        9.50200        1.95100
H          1.85900       10.42600        0.62400
C          2.88200        8.66200       -0.00100
O          3.18600        8.80000       -1.17400
N          2.74600        7.44700        0.47700
H          2.87800        6.69100       -0.16900
H          2.69900        7.31200        1.47400
C          5.35900        9.32100        2.53800
O          4.68100        8.30700        2.67900
N          6.10900        9.76600        3.53700
H          6.70100       10.56900        3.40500
H          6.14000        9.22400        4.38500
