40
0 1
H          8.83000        8.21300        3.14400
C          8.97100        7.13400        3.17100
H          8.26800        6.68400        3.86900
H          9.99000        6.90600        3.48000
C          8.73900        6.56500        1.79100
O          9.63500        5.96100        1.21600
N          7.53500        6.76200        1.25900
H          6.85600        7.29600        1.78000
C          7.13200        6.29600       -0.07100
H          8.00100        6.32600       -0.73100
C          6.65000        4.83700        0.02200
H          7.46300        4.21900        0.40700
H          5.82700        4.78100        0.73700
C          6.19500        4.25800       -1.30400
C          7.14900        3.90800       -2.27800
H          8.20500        3.99600       -2.06000
C          6.73200        3.45300       -3.54100
H          7.46500        3.19000       -4.29100
C          5.36100        3.34900       -3.83500
H          5.04200        3.00700       -4.81000
C          4.40600        3.69300       -2.86300
H          3.35200        3.62100       -3.09200
C          4.82200        4.14300       -1.59700
H          4.08400        4.41800       -0.85800
C          6.05400        7.21100       -0.67900
O          5.31900        7.88100        0.04700
N          5.93600        7.22200       -2.00900
H          6.52800        6.60300       -2.54800
C          4.90800        7.94400       -2.77200
H          4.80800        8.94800       -2.36000
C          5.37700        8.07700       -4.22800
H          4.62100        8.60400       -4.81300
H          6.30500        8.64900       -4.25800
O          5.60500        6.79800       -4.78600
H          4.75000        6.34200       -4.80000
C          3.52700        7.26600       -2.67700
O          2.98100        6.77400       -3.66000
N          2.95000        7.19500       -1.48600
H          3.43400        7.56700       -0.67900
H          2.05000        6.75200       -1.41000
