43
0 1
H          8.31100       18.29800       -7.15000
C          7.86400       17.69200       -6.36500
H          6.89900       18.10700       -6.07900
H          8.52300       17.67100       -5.49800
C          7.67200       16.28100       -6.86800
O          8.22400       15.34600       -6.30400
N          6.89200       16.13000       -7.93600
H          6.49200       16.95100       -8.36500
C          6.58900       14.84400       -8.56800
H          7.45000       14.18300       -8.45500
C          5.38900       14.19700       -7.85400
H          5.65500       14.00900       -6.81300
H          4.55400       14.90000       -7.85800
C          4.93400       12.89300       -8.48000
C          3.81400       12.86800       -9.33500
H          3.24900       13.77200       -9.51500
C          3.43900       11.67200       -9.97300
H          2.58300       11.65500      -10.63200
C          4.18300       10.49900       -9.75900
H          3.90200        9.58100      -10.25500
C          5.29900       10.52000       -8.90300
H          5.87400        9.61900       -8.74500
C          5.67400       11.71500       -8.26400
H          6.53800       11.73000       -7.61400
C          6.32300       15.01400      -10.07200
O          5.86900       16.07200      -10.50700
N          6.58700       13.96900      -10.86200
H          6.90900       13.11100      -10.43300
C          6.25700       13.88200      -12.28500
H          5.29200       14.36700      -12.45100
C          7.33600       14.62700      -13.09900
H          7.48400       15.62200      -12.68000
H          8.27600       14.08000      -13.02900
C          6.97200       14.80700      -14.56400
O          5.84000       14.65200      -14.98600
N          7.93000       15.13100      -15.39900
H          8.86700       15.27200      -15.07300
H          7.65700       15.25100      -16.35800
C          6.12800       12.40200      -12.70200
O          6.73500       11.52400      -12.09600
N          5.36700       12.10000      -13.74300
H          5.28800       11.13500      -14.01700
H          4.94900       12.84400      -14.28500
