43
0 1
H          6.03100       -1.98100       -0.35800
C          6.91600       -1.56900        0.12700
H          7.80300       -1.86300       -0.43000
H          6.97700       -1.94000        1.14800
C          6.81100       -0.06300        0.14400
O          5.83500        0.49100       -0.35500
N          7.82100        0.60100        0.70900
H          8.59300        0.06600        1.07100
C          7.91600        2.06600        0.78400
H          6.96400        2.44800        1.15700
C          8.99600        2.45700        1.80500
H          8.80000        1.93300        2.74200
H          9.97200        2.12500        1.44400
C          9.04800        3.94500        2.10000
C          8.11800        4.51700        2.99000
H          7.37500        3.89600        3.47100
C          8.15000        5.89800        3.25700
H          7.43500        6.33400        3.94000
C          9.11300        6.71200        2.63600
H          9.13800        7.77300        2.84000
C         10.04400        6.14500        1.74800
H         10.78400        6.77000        1.26800
C         10.01200        4.76400        1.48200
H         10.72500        4.33400        0.79200
C          8.14000        2.68400       -0.61000
O          9.25600        3.00400       -1.01600
N          7.05500        2.78200       -1.37700
H          6.19100        2.43200       -0.98200
C          7.05500        3.10400       -2.81200
H          7.96400        2.69500       -3.25300
C          5.87000        2.40800       -3.50900
H          4.93000        2.83200       -3.15400
C          5.92900        2.49800       -5.03500
H          6.87400        2.09100       -5.39500
H          5.10700        1.92400       -5.46100
H          5.83100        3.53300       -5.36000
O          5.89300        1.02500       -3.21100
H          5.72500        0.89800       -2.26600
C          7.09500        4.62200       -3.03200
O          6.13800        5.24300       -3.47700
N          8.19300        5.26100       -2.65500
H          8.94500        4.74000       -2.22200
H          8.23000        6.26100       -2.76000
