46
0 1
H          6.52100        0.82300        6.20100
C          7.47200        1.01800        5.70600
H          7.56400        0.37800        4.83000
H          8.29000        0.82800        6.39700
C          7.50700        2.46400        5.27000
O          6.55400        3.20000        5.49200
N          8.61300        2.87700        4.65400
H          9.33700        2.20400        4.46800
C          8.73400        4.20800        4.05500
H          8.28600        4.93100        4.73900
C         10.21700        4.57300        3.89100
H         10.71600        4.46800        4.85600
H         10.68300        3.87200        3.19800
C         10.43000        5.98800        3.38800
C         10.40800        7.06600        4.29400
H         10.28800        6.88300        5.35200
C         10.53400        8.38600        3.82400
H         10.51700        9.21300        4.51900
C         10.67300        8.63100        2.44600
H         10.75700        9.64500        2.08100
C         10.69600        7.55600        1.54100
H         10.78400        7.74600        0.47900
C         10.58300        6.23600        2.01100
H         10.58700        5.41700        1.30600
C          7.97400        4.30100        2.71800
O          7.91500        3.33100        1.96200
N          7.43500        5.48300        2.40000
H          7.57300        6.25300        3.03600
C          6.72800        5.75900        1.14300
H          6.07600        4.91000        0.93500
C          5.83200        6.99700        1.33300
H          5.19900        6.84700        2.20700
H          6.46000        7.87000        1.52300
C          4.93600        7.29100        0.12100
H          4.33600        8.17400        0.34600
H          5.56800        7.54100       -0.73100
S          3.81300        5.95400       -0.38400
C          2.71300        5.85800        1.05500
H          2.26100        6.83300        1.23700
H          1.92700        5.12800        0.85900
H          3.27700        5.54500        1.93400
C          7.70000        5.88700       -0.04700
O          8.05800        6.97500       -0.48200
N          8.17700        4.76700       -0.57100
H          8.81200        4.83000       -1.34900
H          7.94000        3.88300       -0.14200
