50
0 1
H          0.48700       15.95500       11.03200
C          1.22100       15.26300       10.62500
H          0.80100       14.25900       10.59900
H          2.11800       15.26800       11.24100
C          1.57700       15.68200        9.21800
O          1.37600       14.92400        8.27900
N          2.11300       16.89200        9.07300
H          2.27800       17.45300        9.89600
C          2.51900       17.46600        7.78800
H          2.82300       16.65400        7.12600
C          1.31500       18.18000        7.15000
H          0.52900       17.44600        6.96700
H          0.92500       18.90600        7.86500
C          1.61800       18.88600        5.84300
C          2.05100       18.14700        4.72500
H          2.13900       17.07100        4.78500
C          2.36200       18.80500        3.52200
H          2.69200       18.23800        2.66300
C          2.23300       20.20100        3.42900
H          2.47100       20.70400        2.50100
C          1.78300       20.94000        4.53600
H          1.67100       22.01300        4.45900
C          1.47900       20.28400        5.74300
H          1.13600       20.85900        6.59300
C          3.72500       18.40300        7.95900
O          3.85800       19.06400        8.98600
N          4.60600       18.45000        6.95700
H          4.40900       17.92600        6.11800
C          5.86700       19.20800        6.98300
H          6.26200       19.19200        8.00000
C          6.88100       18.49200        6.07400
H          7.80300       19.07400        6.03600
H          7.13200       17.53400        6.53200
C          6.39300       18.24400        4.65600
C          5.89700       16.97500        4.29300
H          5.89100       16.16900        5.01500
C          5.42300       16.74700        2.98700
H          5.04600       15.77400        2.71000
C          5.44400       17.79500        2.04000
O          4.97900       17.58800        0.78000
H          4.82900       16.66000        0.59600
C          5.93900       19.06300        2.40400
H          5.95100       19.85600        1.67100
C          6.41800       19.28600        3.70900
H          6.80600       20.25900        3.98200
C          5.72700       20.69700        6.60200
O          6.69500       21.44500        6.65500
N          4.55600       21.16400        6.19200
H          3.76400       20.54700        6.11100
H          4.49300       22.13800        5.94900
