46
0 1
H          6.70200        5.22800       -2.83100
C          6.12300        4.56600       -2.19000
H          6.78700        4.07300       -1.48000
H          5.61100        3.81800       -2.79100
C          5.10400        5.37600       -1.42400
O          5.12600        5.39700       -0.20000
N          4.20500        6.04100       -2.14600
H          4.22400        5.94500       -3.15100
C          3.13100        6.86000       -1.57800
H          2.81600        6.41000       -0.63500
C          3.66700        8.27300       -1.27800
H          4.53400        8.19300       -0.62100
H          4.00000        8.73200       -2.21100
C          2.64700        9.17600       -0.61100
C          1.95500       10.14600       -1.36200
H          2.19000       10.29800       -2.40500
C          0.92500       10.89500       -0.76600
H          0.37700       11.62200       -1.35100
C          0.59600       10.68800        0.58500
H         -0.19700       11.26500        1.04100
C          1.29700        9.73400        1.34100
H          1.04600        9.57900        2.38200
C          2.32000        8.97600        0.74400
H          2.84900        8.23200        1.32500
C          1.90300        6.89500       -2.50500
O          2.00600        6.59200       -3.69400
N          0.74200        7.28800       -1.97100
H          0.75600        7.59400       -1.00800
C         -0.52100        7.47700       -2.70300
H         -0.65100        6.63600       -3.38500
C         -1.69800        7.46300       -1.70900
H         -1.57900        8.27500       -0.99000
H         -2.62800        7.62100       -2.25800
C         -1.80900        6.13400       -0.95200
H         -1.91100        5.32600       -1.67700
H         -0.89700        5.96900       -0.37800
S         -3.21300        6.06200        0.19100
C         -2.99400        4.38500        0.84100
H         -3.05200        3.66400        0.02500
H         -2.02400        4.30500        1.33100
H         -3.78100        4.17300        1.56500
C         -0.51200        8.75400       -3.57300
O         -1.30600        9.66800       -3.39300
N          0.41400        8.85900       -4.51600
H          0.42700        9.68700       -5.08700
H          1.08000        8.10800       -4.64200
