50
0 1
H         -1.68700        5.51500       -3.46300
C         -1.19700        4.62500       -3.85300
H         -0.97300        4.76500       -4.90900
H         -1.84500        3.75900       -3.73000
C          0.09100        4.38900       -3.10100
O          1.15000        4.30000       -3.71300
N         -0.01100        4.26300       -1.78000
H         -0.93300        4.26900       -1.36800
C          1.10600        3.99300       -0.87000
H          1.91200        3.53100       -1.44300
C          1.63400        5.31400       -0.28900
H          1.98300        5.94500       -1.10700
H          0.81100        5.83500        0.20300
C          2.76900        5.13100        0.70000
C          2.53600        5.26600        2.08300
H          1.55500        5.54300        2.44400
C          3.57900        5.04200        2.99900
H          3.40200        5.15900        4.06000
C          4.85400        4.67100        2.53700
H          5.65800        4.50400        3.24100
C          5.08800        4.53100        1.15800
H          6.07200        4.25600        0.80200
C          4.04800        4.76300        0.24000
H          4.23300        4.66200       -0.82100
C          0.70100        2.99100        0.22400
O         -0.47700        2.87500        0.55800
N          1.68000        2.25800        0.76400
H          2.62200        2.46600        0.47300
C          1.45900        0.95200        1.40900
H          0.39200        0.84300        1.61000
C          1.85400       -0.16500        0.41800
H          2.93600       -0.30500        0.46000
H          1.39100       -1.10100        0.73300
C          1.45800        0.13100       -1.02000
C          2.41500        0.65600       -1.91300
H          3.45000        0.73800       -1.61300
C          2.01500        1.12700       -3.17800
H          2.73600        1.56900       -3.85000
C          0.66000        1.05200       -3.56000
O          0.26000        1.59400       -4.73800
H          0.79500        2.36700       -4.94600
C         -0.28900        0.48300       -2.68600
H         -1.32500        0.43900       -2.98600
C          0.11000        0.03000       -1.41400
H         -0.62900       -0.35000       -0.72100
C          2.16600        0.79100        2.76800
O          2.18600       -0.28900        3.34300
N          2.77900        1.83900        3.30500
H          2.76300        2.73200        2.83800
H          3.23800        1.71500        4.19200
