46
0 1
H         15.97200       11.52900        4.16900
C         15.13100       11.42900        3.48600
H         14.81400       10.38800        3.44300
H         15.41600       11.76700        2.49200
C         13.98000       12.26800        3.98800
O         12.94400       11.73500        4.36400
N         14.15600       13.58800        3.97800
H         15.01900       13.95000        3.60600
C         13.15700       14.55900        4.45600
H         12.86400       14.27900        5.46900
C         13.80700       15.95100        4.51300
H         13.07900       16.66100        4.90900
H         14.63600       15.92000        5.22000
C         14.31400       16.46900        3.17700
C         13.42400       17.07400        2.26800
H         12.38000       17.18900        2.52700
C         13.88600       17.52400        1.01900
H         13.19900       17.98300        0.32300
C         15.24200       17.37700        0.67600
H         15.59600       17.72500       -0.28500
C         16.13600       16.78500        1.58500
H         17.18000       16.68100        1.32200
C         15.67400       16.33300        2.83400
H         16.36800       15.88600        3.53000
C         11.85900       14.58900        3.62300
O         10.87000       15.17700        4.05200
N         11.84700       13.96300        2.44400
H         12.69600       13.50200        2.14100
C         10.66200       13.75700        1.60500
H         10.04700       14.65800        1.62500
C         11.14100       13.51200        0.16700
H         10.27400       13.44100       -0.49100
H         11.74000       14.36200       -0.16100
C         11.96700       12.25600        0.03000
N         13.29000       12.10400        0.45700
C         13.60400       10.82300        0.21400
H         14.56600       10.37600        0.43000
N         12.55700       10.17200       -0.32200
H         12.54000        9.19400       -0.57200
C         11.51200       11.06000       -0.43900
H         10.51000       10.85700       -0.79400
C          9.76500       12.59700        2.07900
O          8.70700       12.36600        1.50500
N         10.15800       11.82800        3.08800
H         11.05000       11.99100        3.53700
H          9.55600       11.08000        3.38300
