46
0 1
H          4.23900        5.43000       12.80900
C          4.65300        5.07100       11.86800
H          3.84400        4.77300       11.20300
H          5.31000        4.22500       12.05700
C          5.44400        6.18600       11.22500
O          5.53400        7.27500       11.77400
N          6.01500        5.91400       10.05300
H          5.86600        5.00500        9.63900
C          6.79800        6.87500        9.27200
H          6.38000        7.87000        9.43300
C          8.25200        6.87600        9.77600
H          8.25600        7.08500       10.84700
H          8.67500        5.88000        9.63300
C          9.13400        7.90300        9.09400
C          8.91000        9.27400        9.31900
H          8.14500        9.59100       10.01500
C          9.68300       10.23500        8.64400
H          9.51300       11.28900        8.81900
C         10.68200        9.82600        7.74300
H         11.27300       10.56400        7.21800
C         10.91400        8.45700        7.52500
H         11.68300        8.14700        6.83100
C         10.14400        7.49500        8.20200
H         10.33100        6.44400        8.03300
C          6.70200        6.57200        7.76600
O          6.38600        5.45000        7.37900
N          6.97500        7.56600        6.91300
H          7.30400        8.44000        7.29500
C          6.80600        7.47700        5.45000
H          5.85000        6.98700        5.26300
C          6.70600        8.89500        4.85400
H          6.53300        8.81900        3.78000
H          5.82500        9.37400        5.28200
C          7.90700        9.82500        5.10700
H          7.63800       10.81700        4.74400
H          8.05900        9.91200        6.18200
S          9.50100        9.38800        4.35200
C          9.09500        9.47700        2.58700
H          8.35600        8.71600        2.33600
H          8.69800       10.46400        2.34900
H          9.99600        9.30000        2.00100
C          7.85100        6.61200        4.71400
O          7.74400        6.40800        3.51000
N          8.86300        6.08700        5.39000
H          9.52900        5.52400        4.88800
H          8.93900        6.25100        6.37800
