34
0 1
H         -5.31300       -1.10500        7.47300
C         -4.72100       -0.66100        6.67400
H         -5.34500        0.02100        6.10000
H         -4.33900       -1.45000        6.02900
C         -3.56100        0.10300        7.28500
O         -3.46200        0.14100        8.50800
N         -2.68300        0.72300        6.47300
C         -2.72600        0.71100        5.01600
H         -3.68600        1.07000        4.64200
H         -2.53600       -0.30100        4.65600
C         -1.60200        1.63800        4.55100
H         -1.97600        2.66000        4.46700
H         -1.17000        1.30800        3.60500
C         -0.59700        1.54700        5.69800
H          0.08500        2.39700        5.71800
H         -0.02900        0.62000        5.60600
C         -1.50500        1.46600        6.93400
H         -0.99300        0.89300        7.70800
C         -1.87300        2.84000        7.53600
O         -1.45200        3.88700        7.04800
N         -2.68300        2.84400        8.59700
H         -2.99200        1.93600        8.93000
C         -3.23400        4.03400        9.26800
H         -3.55100        4.73200        8.49200
C         -4.49300        3.62800       10.04900
H         -5.18900        3.12600        9.37600
H         -4.22000        2.94000       10.85100
O         -5.12500        4.76400       10.59800
H         -4.49000        5.16000       11.21600
C         -2.21400        4.79100       10.14700
O         -2.48900        5.15000       11.28900
N         -1.00500        5.02700        9.65800
H         -0.79900        4.75800        8.70400
H         -0.33700        5.51500       10.23100
