39
0 1
H          5.73900        0.33600        1.27500
C          6.57900        0.85900        0.82300
H          7.12800        0.17400        0.17900
H          7.24400        1.23900        1.59600
C          6.06500        2.01600       -0.01500
O          6.33100        2.03600       -1.21200
N          5.33600        2.97900        0.57700
C          4.94100        3.00900        1.98000
H          5.80400        2.90400        2.63900
H          4.22200        2.21000        2.17000
C          4.27200        4.36500        2.20400
H          5.02100        5.09900        2.50600
H          3.47500        4.30500        2.94600
C          3.73300        4.71400        0.81700
H          3.58300        5.78700        0.69200
H          2.79300        4.18500        0.65300
C          4.80400        4.14800       -0.12700
H          4.32700        3.83800       -1.05700
C          5.92100        5.15400       -0.46800
O          6.11300        6.15400        0.22100
N          6.67800        4.87300       -1.53200
H          6.49700        3.99900       -2.01600
C          7.84700        5.65400       -1.97100
H          7.85800        6.60500       -1.43900
C          9.15900        4.91300       -1.63200
H          9.16700        3.95000       -2.14500
C         10.40200        5.70100       -2.07200
H         10.42100        5.80200       -3.15700
H         10.40500        6.68800       -1.61000
H         11.30300        5.16400       -1.77400
C          9.29200        4.65300       -0.12300
H         10.24800        4.17600        0.09100
H          9.22400        5.59300        0.42600
H          8.50000        3.98500        0.21200
C          7.74600        5.96100       -3.46700
O          7.42700        5.09900       -4.27500
N          8.03000        7.19200       -3.87200
H          8.28500        7.90000       -3.20500
H          7.96200        7.39200       -4.85600
