37
0 1
H          4.85300        8.11100        3.69000
C          5.82400        7.70400        3.41400
H          6.40000        7.49600        4.31500
H          6.36700        8.41400        2.79400
C          5.63300        6.41000        2.64500
O          6.16200        5.38800        3.07000
N          4.88400        6.41900        1.52700
C          4.23100        7.57500        0.92900
H          4.89700        8.43800        0.89500
H          3.33000        7.81500        1.49500
C          3.85500        7.15100       -0.49000
H          4.68600        7.35500       -1.16700
H          2.95000        7.65200       -0.83500
C          3.65300        5.64100       -0.35800
H          3.80600        5.12700       -1.30800
H          2.65000        5.44200        0.02300
C          4.68700        5.23200        0.69700
H          4.28100        4.42200        1.30400
C          6.01300        4.77300        0.07000
O          6.69900        5.54300       -0.60100
N          6.37300        3.50600        0.27800
H          5.77000        2.90900        0.82700
C          7.62500        2.91000       -0.21000
H          7.81000        3.28200       -1.21700
C          8.80200        3.36000        0.67700
H          8.74400        4.43900        0.82400
C          8.84700        2.69300        2.05200
H          7.91500        2.88500        2.58500
H          8.99800        1.61800        1.95600
H          9.67000        3.11500        2.62900
O         10.01800        3.08200        0.02000
H         10.25500        3.86900       -0.47800
C          7.51000        1.38200       -0.30200
O          6.51800        0.79600        0.12100
N          8.49700        0.70300       -0.86900
H          9.34100        1.18900       -1.13400
H          8.42100       -0.29900       -0.92600
