47
0 1
H          1.82000        8.10900        3.61200
C          1.26700        7.69100        2.77200
H          1.67500        6.71600        2.51800
H          1.34400        8.35800        1.91700
C         -0.19300        7.55200        3.16500
O         -0.55300        7.99500        4.25100
N         -1.04900        6.95900        2.31300
C         -0.67900        6.34500        1.04300
H          0.07600        5.57000        1.18300
H         -0.31000        7.11300        0.36100
C         -1.96000        5.73200        0.48100
H         -2.08100        4.71500        0.85800
H         -1.97000        5.74400       -0.61000
C         -3.04200        6.63500        1.07100
H         -4.02400        6.16100        1.05700
H         -3.07700        7.57000        0.51000
C         -2.50800        6.90900        2.48500
H         -2.86400        7.88700        2.81200
C         -2.98000        5.87600        3.53400
O         -3.99600        5.20800        3.35100
N         -2.23800        5.70300        4.62900
H         -1.45100        6.32800        4.75700
C         -2.38500        4.60100        5.59200
H         -2.65400        3.71100        5.02300
C         -1.02600        4.31700        6.25200
H         -0.88200        5.04500        7.05200
H         -1.06000        3.32900        6.71300
C          0.18100        4.38100        5.35500
C          1.33400        5.01700        5.66100
H          1.51100        5.55800        6.58300
N          2.24600        4.85500        4.63700
H          3.18300        5.22800        4.66600
C          1.71700        4.11700        3.60100
C          2.23100        3.71600        2.35900
H          3.23800        3.97900        2.07300
C          1.41900        2.96200        1.49500
H          1.79900        2.63800        0.53600
C          0.11100        2.62200        1.88400
H         -0.51100        2.03800        1.22000
C         -0.39300        3.02900        3.13600
H         -1.39800        2.75800        3.41600
C          0.39600        3.78800        4.03100
C         -3.52800        4.78200        6.61400
O         -3.42500        4.38100        7.76700
N         -4.63200        5.40800        6.22900
H         -4.73000        5.67600        5.26000
H         -5.37300        5.53200        6.89700
