37
0 1
H          6.72600        6.82100        0.55700
C          6.09700        6.04700        0.99000
H          5.09000        6.42000        1.15200
H          6.51900        5.74200        1.94700
C          6.05300        4.83500        0.07300
O          6.29900        3.73900        0.55900
N          5.75300        5.00000       -1.23200
C          5.82600        3.91700       -2.19900
H          4.85100        3.43300       -2.27800
H          6.58700        3.18200       -1.92800
C          6.18900        4.58800       -3.51900
H          5.86200        4.00000       -4.37700
H          7.26500        4.76900       -3.55800
C          5.44200        5.91700       -3.41800
H          4.40600        5.76600       -3.72600
H          5.90800        6.68700       -4.03400
C          5.50900        6.27300       -1.92500
H          6.35800        6.93700       -1.76100
C          4.22300        6.99300       -1.49000
O          4.16100        8.21800       -1.51900
N          3.21000        6.24200       -1.05100
H          3.34200        5.23700       -1.06200
C          1.90700        6.73200       -0.58100
H          1.57600        7.51900       -1.26100
C          0.89900        5.57000       -0.68100
H         -0.05700        5.85900       -0.24500
H          0.73000        5.33600       -1.73200
C          1.40500        4.30800       -0.00400
O          2.01100        3.46000       -0.63100
N          1.25100        4.19000        1.29000
H          1.63600        3.37000        1.72200
H          0.89400        4.97900        1.81400
C          1.95600        7.38100        0.82700
O          1.20000        7.02300        1.72600
N          2.86300        8.32000        1.05900
H          2.90000        8.74300        1.97100
H          3.47200        8.61700        0.30700
