37
0 1
H          4.28000        4.15300        5.07500
C          3.41300        4.34800        4.44600
H          2.83800        5.17200        4.86500
H          2.78400        3.46200        4.38700
C          3.87200        4.72800        3.05000
O          3.50600        5.80300        2.58100
N          4.67400        3.88700        2.37300
C          5.13900        2.58200        2.82300
H          4.33700        2.00700        3.28600
H          5.96400        2.71400        3.52400
C          5.63500        1.86600        1.56700
H          4.80300        1.34400        1.09000
H          6.44600        1.17200        1.79100
C          6.10100        3.01800        0.67600
H          6.09000        2.74300       -0.38000
H          7.10300        3.32700        0.97700
C          5.10400        4.13600        0.99800
H          5.61900        5.09400        0.95900
C          3.90600        4.13800        0.02200
O          2.96400        3.37100        0.22300
N          3.93200        4.94500       -1.05900
C          2.85100        4.96900       -2.03600
H          1.89300        5.17800       -1.55700
H          2.80800        4.00700       -2.54900
C          3.20100        6.07200       -3.03300
H          2.80200        7.02600       -2.68400
H          2.83600        5.84300       -4.03400
C          4.72700        6.09500       -2.97400
H          5.13100        7.04700       -3.32200
H          5.12700        5.27600       -3.57400
C          5.01900        5.83300       -1.49100
H          5.97700        5.31800       -1.41000
C          5.13300        7.15900       -0.70900
O          6.03100        7.94600       -0.97500
N          4.26400        7.44700        0.25100
H          4.38000        8.31100        0.75300
H          3.56700        6.77700        0.54300
