39
0 1
H          3.76900        0.29600       -2.89100
C          3.49900        0.18800       -3.94100
H          2.51900        0.62900       -4.10900
H          3.48400       -0.86900       -4.20200
C          4.53100        0.90600       -4.79100
O          5.45400        1.48600       -4.22900
N          4.40100        0.89300       -6.13100
C          3.35400        0.20200       -6.87400
H          2.36200        0.52200       -6.55400
H          3.46500       -0.87500       -6.73900
C          3.57100        0.55900       -8.34500
H          3.01700        1.46600       -8.59200
H          3.28400       -0.26000       -9.00600
C          5.07300        0.83700       -8.40500
H          5.34600        1.44800       -9.26600
H          5.61400       -0.11000       -8.43600
C          5.34000        1.53000       -7.06100
H          6.36300        1.31600       -6.75200
C          5.17400        3.06600       -7.10100
O          4.84300        3.64700       -8.13400
N          5.37500        3.73500       -5.96200
H          5.63200        3.19000       -5.14400
C          5.24700        5.19600       -5.80600
H          4.39000        5.52100       -6.39600
C          4.95200        5.58300       -4.33700
H          5.82000        5.35200       -3.71700
C          4.62100        7.07700       -4.19700
H          5.47000        7.68600       -4.50600
H          3.75600        7.33100       -4.80900
H          4.40500        7.31200       -3.15500
C          3.74600        4.81000       -3.77800
H          2.87200        4.96900       -4.41100
H          3.96900        3.74600       -3.72800
H          3.52400        5.15100       -2.76700
C          6.48000        5.91200       -6.38200
O          7.35100        6.39700       -5.67000
N          6.60100        5.94600       -7.70000
H          5.91900        5.46200       -8.26900
H          7.41200        6.38800       -8.09900
