40
0 1
H          1.84600       -2.68500        8.60700
C          2.15800       -3.14600        9.54200
H          1.30400       -3.25900       10.20700
H          2.91100       -2.52100       10.01900
C          2.76000       -4.50900        9.25100
O          3.94300       -4.69600        9.52200
N          1.97700       -5.46700        8.72200
C          0.57100       -5.33700        8.36500
H          0.38000       -4.41200        7.81800
H         -0.03700       -5.37300        9.27000
C          0.25200       -6.54100        7.47900
H          0.46800       -6.29700        6.43700
H         -0.78400       -6.86200        7.59000
C          1.23300       -7.60400        7.97400
H          1.44400       -8.35100        7.20800
H          0.82900       -8.08100        8.86900
C          2.47500       -6.79000        8.35000
H          2.96400       -7.25400        9.20900
C          3.48100       -6.70000        7.19300
O          3.24300       -6.03000        6.18900
N          4.60400       -7.40400        7.32600
H          4.71500       -7.94600        8.17700
C          5.79600       -7.28500        6.47600
H          5.90100       -6.23200        6.20900
C          7.04800       -7.67800        7.29100
H          7.00800       -8.73900        7.54500
H          7.92200       -7.52400        6.65500
C          7.26100       -6.84100        8.57100
H          8.29700       -6.96000        8.88800
H          7.10800       -5.78700        8.33800
C          6.37600       -7.22500        9.76000
O          5.70200       -8.24400        9.79100
N          6.31700       -6.40900       10.78600
H          6.74200       -5.50300       10.73600
H          5.66000       -6.65400       11.50400
C          5.68400       -8.04700        5.13600
O          6.62100       -8.69200        4.68100
N          4.52900       -8.01600        4.48500
H          4.45300       -8.51500        3.61500
H          3.77900       -7.43900        4.84300
