40
0 1
H         -1.76100       -4.49100        0.29800
C         -2.71100       -4.81500        0.71800
H         -2.58900       -5.76300        1.23700
H         -3.44300       -4.93000       -0.08000
C         -3.21100       -3.76500        1.69400
O         -4.29000       -3.22400        1.47300
N         -2.45900       -3.46500        2.76900
C         -1.18100       -4.08100        3.10700
H         -0.45900       -3.96700        2.29700
H         -1.33600       -5.13800        3.32800
C         -0.68000       -3.36400        4.36100
H         -0.07400       -2.50200        4.07700
H         -0.11600       -4.03400        5.01200
C         -1.97600       -2.89200        5.01800
H         -1.81000       -2.07100        5.71600
H         -2.44400       -3.73000        5.53700
C         -2.83600       -2.50000        3.80800
H         -3.88800       -2.63200        4.06500
C         -2.64500       -1.03700        3.34900
O         -1.93600       -0.25800        3.98400
N         -3.26100       -0.66300        2.22500
H         -3.82500       -1.36700        1.76100
C         -3.10400        0.63100        1.53800
H         -2.04300        0.88900        1.55600
C         -3.50300        0.47300        0.06100
H         -4.57500        0.27700        0.00100
H         -3.30200        1.40900       -0.46300
C         -2.76500       -0.62700       -0.66100
N         -1.38700       -0.66600       -0.88100
C         -1.15700       -1.77800       -1.59100
H         -0.18000       -2.08900       -1.93800
N         -2.30700       -2.43600       -1.81900
H         -2.39900       -3.28700       -2.35500
C         -3.33300       -1.72600       -1.23700
H         -4.38600       -1.97200       -1.23400
C         -3.84000        1.80200        2.22300
O         -4.54300        2.58100        1.58900
N         -3.72800        1.93900        3.53600
H         -3.12500        1.30600        4.04600
H         -4.21300        2.69600        3.98500
