47
0 1
H          9.91000        0.33500        1.09300
C          9.16100        0.36800        1.88200
H          9.60900        0.03800        2.81800
H          8.32600       -0.28400        1.63200
C          8.65900        1.79100        2.04700
O          8.80200        2.34100        3.13600
N          8.07800        2.40600        1.00100
C          7.91300        1.83900       -0.33200
H          7.38200        0.88700       -0.29700
H          8.89300        1.70800       -0.79300
C          7.10400        2.86100       -1.13200
H          6.03800        2.65300       -1.02500
H          7.39000        2.86800       -2.18500
C          7.44800        4.18000       -0.44100
H          6.69400        4.94800       -0.62000
H          8.42100        4.52800       -0.79200
C          7.55500        3.77400        1.03600
H          8.27200        4.43100        1.53000
C          6.22000        3.85900        1.80400
O          5.16000        4.06700        1.22200
N          6.26800        3.68300        3.12700
H          7.17000        3.47000        3.53800
C          5.09500        3.66300        4.01700
H          4.34600        2.99700        3.58900
C          5.53200        3.08400        5.37200
H          4.66100        3.03500        6.02700
H          5.87100        2.05900        5.21600
C          6.61600        3.84000        6.08900
C          7.92900        3.51700        6.07700
H          8.35300        2.66300        5.56100
N          8.64500        4.44500        6.80600
H          9.64600        4.40200        6.92800
C          7.82600        5.41800        7.33300
C          8.07500        6.55000        8.12400
H          9.08100        6.79100        8.43100
C          6.99500        7.36000        8.51500
H          7.16600        8.23600        9.12700
C          5.68900        7.02600        8.11500
H          4.85900        7.64700        8.42200
C          5.45200        5.88700        7.32100
H          4.44100        5.64000        7.02900
C          6.51400        5.05500        6.90100
C          4.39900        5.02600        4.20100
O          3.30100        5.09200        4.73900
N          5.00000        6.13200        3.77800
H          5.89900        6.07000        3.33400
H          4.52900        7.01000        3.91100
