37
0 1
H          9.41800        3.72900        7.79500
C          9.22900        3.61900        6.73000
H          9.88800        2.85400        6.32300
H          9.41200        4.56100        6.21700
C          7.78800        3.19500        6.51000
O          7.56900        2.13800        5.92600
N          6.79500        3.99000        6.95100
C          6.97400        5.24800        7.66800
H          7.59500        5.94400        7.10100
H          7.42300        5.04900        8.64200
C          5.57300        5.83100        7.85900
H          5.31300        6.45800        7.00500
H          5.49300        6.39400        8.78900
C          4.69100        4.58300        7.87300
H          3.65000        4.81100        7.64300
H          4.75600        4.10600        8.85300
C          5.36500        3.68500        6.82500
H          5.19000        2.64200        7.09200
C          4.84100        3.89400        5.38700
O          3.92100        4.67400        5.14700
N          5.44400        3.21300        4.40900
H          6.19300        2.58600        4.68600
C          5.17500        3.34800        2.97300
H          5.03700        4.41100        2.76500
C          6.43700        2.88400        2.21400
H          7.32600        3.22900        2.74300
H          6.47000        1.79500        2.17200
C          6.52000        3.44500        0.80500
O          7.30200        4.33000        0.51400
N          5.70800        2.97200       -0.10800
H          5.77900        3.36100       -1.02900
H          5.00800        2.29000        0.16400
C          3.86700        2.63900        2.53300
O          3.84900        1.81700        1.62100
N          2.75000        2.91500        3.19200
H          2.77500        3.59500        3.94100
H          1.90000        2.44900        2.92200
