40
0 1
H          4.41300        8.12500        2.58200
C          3.96600        7.17100        2.31100
H          4.11900        6.97200        1.25300
H          2.89600        7.20600        2.51100
C          4.58400        6.05700        3.13700
O          3.83900        5.35300        3.81400
N          5.92100        5.88400        3.11400
C          6.59300        4.85700        3.89800
H          6.14000        3.87800        3.74000
H          6.54600        5.12400        4.95500
C          8.04600        4.85200        3.42800
H          8.15600        4.17700        2.57800
H          8.73000        4.57500        4.23100
C          8.25400        6.29700        2.97500
H          9.07900        6.38500        2.26600
H          8.43800        6.92800        3.84600
C          6.90400        6.67000        2.35200
H          6.73100        7.73700        2.49100
C          6.90600        6.37700        0.84000
O          7.43600        7.16300        0.05900
N          6.31200        5.26200        0.41400
H          5.89900        4.64800        1.10800
C          6.08100        4.90300       -0.98800
H          7.03500        4.92000       -1.51600
C          5.51500        3.47000       -1.04500
H          5.03000        3.29900       -2.00700
H          6.34700        2.77000       -0.96200
C          4.54700        3.15700        0.07400
N          4.93000        2.73800        1.35000
C          3.82100        2.78000        2.10200
H          3.78700        2.56100        3.16200
N          2.77900        3.21400        1.37400
H          1.86300        3.42300        1.74500
C          3.21800        3.46400        0.09300
H          2.66000        3.92300       -0.71200
C          5.14300        5.90400       -1.68400
O          4.02400        6.14900       -1.25000
N          5.56400        6.46900       -2.80600
H          6.49600        6.30000       -3.14300
H          4.95400        7.13100       -3.25800
