39
0 1
H         13.36000       -0.69200        0.10900
C         12.74300       -1.08600       -0.69600
H         12.86300       -2.16500       -0.76900
H         13.03700       -0.62300       -1.63700
C         11.28800       -0.75300       -0.41900
O         10.68900       -0.03000       -1.20900
N         10.69600       -1.27100        0.67200
C         11.31100       -2.15200        1.65500
H         12.28200       -1.77400        1.97900
H         11.41700       -3.15100        1.23000
C         10.34600       -2.19400        2.84000
H         10.59000       -1.39300        3.54000
H         10.36900       -3.16100        3.34400
C          8.98700       -1.92200        2.19300
H          8.27900       -1.49300        2.90400
H          8.59200       -2.85100        1.77900
C          9.32000       -0.95700        1.05000
H          8.65200       -1.15200        0.21000
C          9.18500        0.51500        1.47000
O          9.85100        0.97200        2.39800
N          8.29200        1.25000        0.80200
H          7.77000        0.80900        0.05800
C          8.03700        2.68500        1.02000
H          8.32800        2.93900        2.03900
C          8.86400        3.57100        0.06100
H          8.57700        4.60800        0.24100
C         10.36900        3.47400        0.33400
H         10.73700        2.48100        0.07600
H         10.90100        4.21200       -0.26600
H         10.56800        3.66300        1.38900
C          8.61200        3.27100       -1.42300
H          8.93900        2.25800       -1.66500
H          7.55200        3.37100       -1.65700
H          9.17200        3.97400       -2.04000
C          6.54400        2.99900        0.88700
O          5.79500        2.27900        0.23600
N          6.07900        4.08200        1.49400
H          6.69500        4.66900        2.03000
H          5.09700        4.28700        1.40600
