37
0 1
H          7.03300       -0.53600       -2.81900
C          6.84200       -1.38100       -2.16300
H          6.39600       -1.05000       -1.22700
H          7.78200       -1.88700       -1.94600
C          5.90800       -2.36800       -2.84400
O          6.27500       -3.53200       -2.95300
N          4.72800       -1.93300       -3.32800
C          3.76600       -2.81900       -3.96500
H          3.61500       -3.72600       -3.37700
H          4.11900       -3.07600       -4.96500
C          2.46500       -2.02400       -4.05900
H          1.89500       -2.14100       -3.13600
H          1.86900       -2.32400       -4.92200
C          2.96500       -0.58500       -4.18200
H          2.20400        0.13200       -3.87000
H          3.26500       -0.39300       -5.21300
C          4.20300       -0.56400       -3.27600
H          4.93800        0.11900       -3.69900
C          3.83700       -0.10500       -1.84700
O          3.59000       -0.94200       -0.97800
N          3.77800        1.21600       -1.58100
C          4.10200        2.29300       -2.51000
H          3.52100        2.21700       -3.43000
H          5.16900        2.26800       -2.73400
C          3.76500        3.59700       -1.78600
H          2.72700        3.87200       -1.98400
H          4.43800        4.40600       -2.07500
C          3.93000        3.21800       -0.31500
H          3.38000        3.88700        0.34700
H          4.99100        3.22900       -0.05600
C          3.41200        1.77400       -0.27500
H          3.93400        1.23500        0.51700
C          1.89600        1.66600       -0.00500
O          1.16500        2.64800       -0.00600
N          1.38700        0.46100        0.20400
H          1.99000       -0.35000        0.14500
H          0.39900        0.37700        0.37700
