39
0 1
H          4.29400        4.67700        1.46200
C          3.30200        5.04400        1.20500
H          3.36900        5.67800        0.32300
H          2.89700        5.60800        2.04300
C          2.40200        3.85900        0.90800
O          2.87400        2.73000        0.98200
N          1.11700        4.08100        0.57400
C          0.46400        5.38300        0.52000
H          0.99800        6.06800       -0.13900
H          0.40200        5.79900        1.52700
C         -0.94600        5.12900       -0.01700
H         -0.94500        5.20900       -1.10500
H         -1.67300        5.81700        0.41700
C         -1.21400        3.68300        0.39900
H         -1.98100        3.21300       -0.21800
H         -1.51400        3.65800        1.44800
C          0.16200        3.01900        0.24900
H          0.24500        2.20800        0.97400
C          0.42300        2.43700       -1.15500
O         -0.29800        2.72700       -2.10900
N          1.47700        1.62800       -1.29000
H          2.04900        1.45900       -0.46700
C          1.92500        1.02200       -2.55700
H          1.09600        1.05100       -3.26400
C          3.09300        1.81000       -3.19000
H          3.35300        1.31600       -4.12700
C          2.69500        3.25000       -3.53700
H          2.51300        3.82300       -2.62800
H          3.49400        3.72800       -4.10400
H          1.78700        3.24600       -4.14100
C          4.35700        1.84800       -2.32000
H          5.15100        2.37800       -2.84600
H          4.15400        2.35700       -1.37900
H          4.70000        0.83600       -2.10700
C          2.29600       -0.45400       -2.37800
O          2.65400       -0.90200       -1.29600
N          2.22700       -1.24200       -3.44100
H          1.92800       -0.87700       -4.32900
H          2.47000       -2.21200       -3.32300
