44
0 1
H          3.27400       13.98600        1.53800
C          3.08800       12.92500        1.37500
H          2.28300       12.81200        0.65300
H          2.81500       12.45800        2.31900
C          4.35200       12.28200        0.83700
O          5.32700       12.99000        0.61800
N          4.36200       10.95700        0.59200
C          3.23000       10.05300        0.72500
H          2.33100       10.46300        0.26200
H          3.05100        9.84700        1.78100
C          3.64700        8.76900        0.01000
H          3.42400        8.85100       -1.05500
H          3.16300        7.89100        0.43900
C          5.16000        8.74500        0.22100
H          5.66400        8.13700       -0.53200
H          5.38100        8.36500        1.21900
C          5.55500       10.22400        0.14100
H          6.38100       10.41100        0.82800
C          6.03400       10.60500       -1.27300
O          7.13100       10.23000       -1.67100
N          5.22500       11.35000       -2.03000
H          4.34300       11.62900       -1.63100
C          5.58000       11.96300       -3.31400
H          6.21800       11.27600       -3.87200
C          4.28200       12.17200       -4.11500
H          4.48400       12.80000       -4.98400
H          3.96300       11.20100       -4.49600
C          3.13900       12.77900       -3.31500
C          3.15400       14.14800       -2.98500
H          3.95900       14.78100       -3.33400
C          2.12100       14.69500       -2.20000
H          2.12500       15.74300       -1.94000
C          1.06300       13.87700       -1.75300
O          0.06900       14.41100       -0.99800
H         -0.70000       13.84200       -0.95100
C          1.04600       12.50400       -2.08300
H          0.23700       11.87600       -1.74400
C          2.08600       11.95800       -2.86000
H          2.07300       10.90700       -3.11600
C          6.37800       13.27900       -3.17200
O          6.76300       13.87800       -4.16900
N          6.62400       13.78000       -1.96700
H          7.15300       14.63300       -1.90500
H          6.28800       13.31500       -1.13500
