43
0 1
H          7.07300        4.62200       -3.48700
C          7.14300        3.78300       -4.17600
H          7.53400        4.11700       -5.13500
H          6.15500        3.34900       -4.31900
C          8.06400        2.72900       -3.59000
O          7.59300        1.63600       -3.28400
N          9.36800        3.01800       -3.42300
C         10.01500        4.29700       -3.67800
H          9.40000        5.13400       -3.34400
H         10.23100        4.38800       -4.74400
C         11.32100        4.26300       -2.88400
H         11.13900        4.60700       -1.86400
H         12.09800        4.86300       -3.35800
C         11.67700        2.77600       -2.87200
H         12.30900        2.51800       -2.02100
H         12.17500        2.51600       -3.80700
C         10.31100        2.08200       -2.81400
H         10.34900        1.16500       -3.40200
C          9.88600        1.74300       -1.37800
O          9.64600        2.63600       -0.57000
N          9.79300        0.44400       -1.07600
H         10.01900       -0.21500       -1.80200
C          9.29600       -0.10900        0.19700
H          9.28800       -1.19100        0.07300
C         10.28400        0.18200        1.34300
H         10.17500        1.22400        1.64700
H         10.01100       -0.43000        2.20400
C         11.74100       -0.08400        1.00700
C         12.23800       -1.40100        1.00100
H         11.58800       -2.22400        1.26000
C         13.58100       -1.64800        0.66400
H         13.96200       -2.65900        0.66500
C         14.43100       -0.57800        0.33200
H         15.46500       -0.76700        0.07700
C         13.93800        0.73900        0.33700
H         14.59200        1.56300        0.08800
C         12.59600        0.98600        0.67600
H         12.21600        1.99800        0.68000
C          7.83600        0.25200        0.55600
O          7.37600       -0.04700        1.65200
N          7.06100        0.84800       -0.34300
H          7.42500        1.09700       -1.25200
H          6.11700        1.07400       -0.08100
