44
0 1
H         10.37500       -2.06000       10.20600
C         10.54400       -0.98700       10.26700
H         11.23100       -0.76400       11.08100
H          9.59700       -0.48000       10.44200
C         11.13300       -0.49200        8.95900
O         10.53400        0.37800        8.33300
N         12.29800       -1.01200        8.52800
C         13.05900       -2.05200        9.21000
H         12.46100       -2.95400        9.34900
H         13.40500       -1.67700       10.17400
C         14.26300       -2.35200        8.31700
H         14.00600       -3.13500        7.60000
H         15.13900       -2.63600        8.90000
C         14.47100       -1.02800        7.58400
H         15.05000       -1.15000        6.66800
H         14.97700       -0.32400        8.24800
C         13.03100       -0.55400        7.34200
H         13.02100        0.53600        7.31000
C         12.41700       -1.06200        6.01800
O         13.11400       -1.59600        5.15800
N         11.10000       -0.92200        5.84900
H         10.58900       -0.45200        6.58900
C         10.31200       -1.47300        4.73500
H         10.69100       -2.47600        4.53500
C          8.84500       -1.61600        5.18100
H          8.40600       -0.61900        5.23800
H          8.29900       -2.17000        4.41600
C          8.64100       -2.32400        6.51100
C          9.13200       -3.63200        6.70200
H          9.65100       -4.13800        5.90000
C          8.94700       -4.28300        7.93700
H          9.32100       -5.28400        8.09300
C          8.25400       -3.63500        8.98000
O          8.08000       -4.26600       10.16900
H          7.45100       -3.80900       10.72900
C          7.75600       -2.32800        8.78900
H          7.23200       -1.82400        9.58600
C          7.95800       -1.67400        7.55800
H          7.58900       -0.66700        7.41800
C         10.45400       -0.69800        3.40400
O          9.49200       -0.49700        2.67200
N         11.64500       -0.22100        3.06700
H         12.44300       -0.44000        3.64600
H         11.73300        0.28800        2.20400
