40
0 1
H         17.02500        8.58600        3.88700
C         16.59600        8.56300        4.88800
H         15.80300        9.30500        4.95800
H         17.37500        8.77700        5.61700
C         16.02200        7.18200        5.14800
O         16.08700        6.34300        4.25400
N         15.45500        6.92100        6.34100
C         15.36000        7.85800        7.45400
H         14.86700        8.78400        7.15500
H         16.35900        8.07000        7.83600
C         14.53800        7.15300        8.53500
H         13.47700        7.35800        8.38500
H         14.85000        7.44800        9.53700
C         14.82400        5.67700        8.26100
H         14.06000        5.02300        8.68500
H         15.80100        5.41700        8.67200
C         14.88700        5.62400        6.72800
H         15.56700        4.82500        6.43200
C         13.52400        5.35600        6.05200
O         12.49800        5.21000        6.71000
N         13.50900        5.30700        4.71900
H         14.40100        5.44900        4.25600
C         12.32200        5.19400        3.85300
H         11.57300        5.88200        4.24500
C         12.69800        5.69000        2.44300
H         11.79600        5.77300        1.83600
H         13.12400        6.68900        2.53600
C         13.70100        4.78200        1.71300
H         14.51900        4.52400        2.38600
H         13.19300        3.85900        1.43400
S         14.42000        5.50400        0.21200
C         15.61500        6.65800        0.94100
H         15.09700        7.39700        1.55100
H         16.32100        6.10800        1.56300
H         16.15800        7.16700        0.14500
C         11.64300        3.80300        3.84500
O         11.05300        3.38800        2.85500
N         11.71700        3.04100        4.92700
H         12.12200        3.42200        5.77000
H         11.27000        2.14000        4.91100
