37
0 1
H         11.19400       13.26500       -0.11900
C         12.27800       13.26200       -0.02000
H         12.55300       13.64300        0.96300
H         12.72800       13.88800       -0.78700
C         12.79500       11.84200       -0.15700
O         13.30100       11.30300        0.82200
N         12.68000       11.21500       -1.34300
C         11.97500       11.70300       -2.51800
H         12.64600       12.32700       -3.10900
H         11.07400       12.25800       -2.25300
C         11.60200       10.44800       -3.30400
H         11.49300       10.65500       -4.36900
H         10.68500       10.01800       -2.89700
C         12.78000        9.51600       -3.02200
H         13.59600        9.75700       -3.70500
H         12.49800        8.46700       -3.12500
C         13.17000        9.85800       -1.57700
H         12.64500        9.18400       -0.89900
C         14.68400        9.73700       -1.34700
O         15.47400       10.47000       -1.94100
N         15.09600        8.78200       -0.51200
H         14.40000        8.22100       -0.04300
C         16.49400        8.55400       -0.10200
H         16.96700        9.52500        0.04900
C         16.54000        7.80600        1.24300
H         17.58100        7.64600        1.52500
C         15.85200        8.57500        2.37200
H         15.97700        8.02900        3.30700
H         16.30200        9.56200        2.47400
H         14.78600        8.68600        2.16800
O         15.90000        6.55800        1.11800
H         16.45600        6.03800        0.52200
C         17.31400        7.82400       -1.17800
O         17.84000        6.73600       -0.96000
N         17.40800        8.37900       -2.37800
H         16.94300        9.26200       -2.54900
H         17.93100        7.90400       -3.09400
