37
0 1
H          2.93300       16.17300       11.28200
C          2.31900       17.00500       10.94100
H          2.94100       17.77200       10.48700
H          1.78100       17.42700       11.78900
C          1.31000       16.50200        9.92400
O          0.12100       16.74000       10.10700
N          1.74900       15.82100        8.85000
C          3.13300       15.62000        8.45100
H          3.52600       14.72900        8.94400
H          3.75400       16.48600        8.68000
C          3.07800       15.40000        6.94100
H          3.92400       14.81100        6.58600
H          3.03600       16.36400        6.43100
C          1.75200       14.66200        6.75900
H          1.90900       13.59800        6.94800
H          1.34100       14.81200        5.76000
C          0.84700       15.26900        7.84000
H          0.29400       16.10100        7.40900
C         -0.11400       14.21400        8.42900
O          0.34300       13.33300        9.16100
N         -1.42100       14.24100        8.09300
C         -2.07400       15.25400        7.27300
H         -1.60600       15.33300        6.29100
H         -2.03300       16.21500        7.79000
C         -3.53100       14.81400        7.12700
H         -3.63700       14.17100        6.25300
H         -4.20600       15.66800        7.06100
C         -3.76400       14.00300        8.40000
H         -4.60100       13.31100        8.30000
H         -3.94200       14.68300        9.23400
C         -2.41800       13.29400        8.60200
H         -2.26200       13.13700        9.67000
C         -2.32400       11.92100        7.90300
O         -3.19800       11.51200        7.14800
N         -1.24100       11.18900        8.11800
H         -1.16500       10.29400        7.66500
H         -0.50400       11.56000        8.70500
