40
0 1
H          4.97500        7.81800        2.76500
C          6.01400        8.03200        2.52600
H          6.15300        9.11200        2.49800
H          6.27700        7.61700        1.55600
C          6.91100        7.45700        3.61000
O          7.42300        8.23900        4.40400
N          7.12200        6.12400        3.66100
C          8.06100        5.51800        4.59300
H          7.53500        5.24600        5.50900
H          8.89200        6.18700        4.82300
C          8.57200        4.26700        3.88700
H          8.92400        3.51700        4.59500
H          9.35900        4.53700        3.18100
C          7.33100        3.80100        3.12800
H          6.69600        3.22700        3.80600
H          7.59400        3.19800        2.25900
C          6.62900        5.10500        2.71900
H          6.94800        5.37100        1.71100
C          5.10500        4.90200        2.71700
O          4.54600        4.42500        1.73400
N          4.43000        5.29500        3.79800
H          4.97900        5.68000        4.56100
C          2.97600        5.28500        4.02800
H          2.58700        4.30400        3.75500
C          2.75600        5.49100        5.54100
H          1.69300        5.60900        5.75900
H          3.09900        4.59900        6.06600
C          3.52500        6.67200        6.08600
N          4.88900        6.65600        6.38900
C          5.22200        7.92400        6.66600
H          6.22500        8.25700        6.90600
N          4.14900        8.72600        6.54700
H          4.15800        9.72900        6.66100
C          3.07000        7.95500        6.17200
H          2.07500        8.29300        5.91400
C          2.19600        6.31100        3.17200
O          1.31900        7.01900        3.65300
N          2.50500        6.43600        1.89000
H          3.20200        5.82300        1.48700
H          1.99500        7.10200        1.33400
