34
0 1
H          6.56700        6.34900        4.74100
C          5.73000        5.67600        4.91800
H          5.49900        5.65400        5.98300
H          5.98200        4.67200        4.58000
C          4.51800        6.16800        4.16400
O          3.49700        6.47000        4.76500
N          4.63200        6.25900        2.84200
H          5.49400        5.96500        2.40500
C          3.53500        6.63400        1.93700
H          2.61900        6.14900        2.27400
C          3.31000        8.15300        1.96500
H          2.43900        8.39800        1.35600
H          3.11400        8.47900        2.98800
O          4.43300        8.84100        1.45300
H          5.12900        8.81400        2.11600
C          3.82300        6.16500        0.50500
O          4.94900        5.78200        0.18300
N          2.81500        6.19500       -0.37000
H          1.91200        6.52800       -0.06300
C          2.91600        5.82800       -1.79600
H          3.56000        4.95300       -1.88100
C          1.53200        5.44100       -2.34900
H          1.62600        5.18200       -3.40400
C          0.91400        4.24900       -1.61700
H          1.59100        3.39700       -1.66300
H          0.71300        4.50000       -0.57600
H         -0.02500        3.98100       -2.10200
O          0.65000        6.53100       -2.21700
H          0.94400        7.19100       -2.85900
C          3.56500        6.93600       -2.64600
O          3.03000        7.35200       -3.66800
N          4.70000        7.47500       -2.22200
H          5.11100        8.22100       -2.75700
H          5.12600        7.13300       -1.37100
