31
0 1
H          7.64600        1.84400        3.47000
C          7.12600        2.79900        3.42400
H          7.79000        3.59400        3.75900
H          6.24000        2.76300        4.05500
C          6.71200        3.06200        1.99500
O          6.97700        2.25100        1.12000
N          6.06100        4.19900        1.76300
H          5.89900        4.82900        2.53500
C          5.59900        4.64600        0.44200
H          6.33200        4.35400       -0.31100
C          4.26200        3.96800        0.10000
H          4.41100        2.88700        0.07800
H          3.52500        4.20200        0.87000
O          3.76700        4.38300       -1.16100
H          3.26000        5.21000       -1.06000
C          5.44300        6.16800        0.40900
O          5.24100        6.80100        1.44600
N          5.46700        6.76000       -0.78600
H          5.59200        6.17200       -1.59900
C          4.86200        8.07200       -1.01000
H          5.26100        8.77400       -0.27600
C          5.23600        8.56300       -2.41800
H          4.73500        9.50900       -2.62700
H          6.31500        8.72400       -2.46800
S          4.77100        7.34000       -3.68200
H          3.47300        7.23000       -3.36400
C          3.33300        8.00100       -0.81600
O          2.71000        6.96000       -1.02100
N          2.69600        9.10600       -0.44900
H          3.20500        9.95500       -0.26900
H          1.69800        9.05500       -0.32100
