34
0 1
H          2.96300        5.33400        3.36200
C          4.04100        5.47500        3.28700
H          4.49500        4.58500        2.85300
H          4.45400        5.65800        4.27700
C          4.31800        6.66400        2.39900
O          3.39700        7.29300        1.89900
N          5.59400        6.97100        2.18200
H          6.30800        6.40000        2.61000
C          6.05800        8.08800        1.34200
H          5.42000        8.95000        1.54000
C          7.48600        8.46200        1.75900
H          7.82500        9.32700        1.18600
H          7.49700        8.72100        2.81900
O          8.35900        7.37200        1.53800
H          8.45400        7.28100        0.57900
C          5.95300        7.78800       -0.16700
O          6.93400        7.90700       -0.90300
N          4.78100        7.35500       -0.64000
H          4.00200        7.29400        0.01300
C          4.52300        6.92300       -2.02900
H          5.39400        6.36800       -2.37600
C          3.32200        5.95900       -2.09200
H          3.19800        5.62100       -3.12200
C          3.50200        4.72700       -1.20400
H          2.66800        4.04400       -1.37000
H          4.43200        4.22000       -1.45800
H          3.51400        5.01400       -0.15300
O          2.14600        6.61100       -1.68300
H          1.97600        7.30000       -2.33900
C          4.34700        8.10300       -3.00000
O          3.35400        8.20800       -3.71200
N          5.28600        9.03800       -3.02900
H          6.10000        8.94100       -2.43700
H          5.17000        9.82100       -3.65100
