31
0 1
H          9.14000       12.20700       -5.96600
C          9.23300       11.29200       -6.54700
H          9.14500       11.51700       -7.60900
H          8.44700       10.59400       -6.25900
C         10.57600       10.65500       -6.28100
O         10.64300        9.52800       -5.80900
N         11.65300       11.39100       -6.54700
H         11.52700       12.33600       -6.87700
C         13.04200       10.91700       -6.40600
H         13.16200       10.01500       -7.00700
C         13.99600       11.98300       -6.95300
H         15.02800       11.67100       -6.78100
H         13.83800       12.09300       -8.02700
O         13.75700       13.22600       -6.31600
H         14.52800       13.78900       -6.44100
C         13.46000       10.54900       -4.97300
O         14.46900        9.87400       -4.79800
N         12.69000       10.94900       -3.95500
H         11.88300       11.50700       -4.18200
C         12.88300       10.52900       -2.55800
H         13.95500       10.49100       -2.36000
C         12.27700       11.57800       -1.61800
H         12.65000       12.56700       -1.88700
H         11.19000       11.57000       -1.71600
O         12.63000       11.30800       -0.27900
H         12.48300       10.36000       -0.12100
C         12.31900        9.12800       -2.24200
O         12.35800        8.69200       -1.09500
N         11.74300        8.41200       -3.20100
H         11.66300        8.77900       -4.14000
H         11.38200        7.50300       -2.96800
