31
0 1
H          7.93900        6.99900       -4.50900
C          8.57800        6.18500       -4.17200
H          9.60800        6.37300       -4.46700
H          8.23900        5.25000       -4.61700
C          8.49800        6.06900       -2.66900
O          8.08800        5.03900       -2.15100
N          8.87200        7.13600       -1.96400
H          9.18000        7.94400       -2.48100
C          8.91000        7.21200       -0.49100
H          9.35400        6.28600       -0.12400
C          9.84600        8.35400       -0.06800
H         10.82800        8.19900       -0.51700
H          9.44400        9.30700       -0.41700
O          9.98700        8.39300        1.33400
H          9.12100        8.62800        1.69800
C          7.51200        7.31700        0.16300
O          7.25400        8.20900        0.97100
N          6.59200        6.42000       -0.20100
H          6.89800        5.70100       -0.85100
C          5.17900        6.39900        0.21600
H          4.81100        7.42400        0.18300
C          4.36900        5.59600       -0.81300
H          4.55300        5.99700       -1.81100
H          4.68000        4.55000       -0.79000
O          2.98900        5.68300       -0.53400
H          2.85900        5.28700        0.34300
C          4.95200        5.90000        1.66100
O          4.05600        5.10400        1.93200
N          5.76700        6.32200        2.61600
H          6.47500        7.00700        2.39400
H          5.62400        5.98900        3.55500
