37
0 1
H         10.16500        7.16300       -7.02200
C          9.12400        6.85000       -7.06400
H          8.96000        6.22600       -7.94100
H          8.48000        7.72700       -7.11600
C          8.78700        6.06400       -5.82000
O          7.91700        6.46100       -5.05300
N          9.48600        4.95200       -5.60400
H         10.23200        4.71500       -6.24100
C          9.32600        4.10100       -4.41700
H          8.29800        3.74200       -4.37400
C         10.25400        2.88500       -4.53600
H         10.20300        2.29500       -3.61900
H          9.93300        2.26300       -5.37300
O         11.58600        3.30500       -4.75700
H         11.81100        3.93300       -4.05100
C          9.63300        4.88200       -3.13300
O         10.78800        5.21600       -2.87400
N          8.59700        5.16000       -2.33400
H          7.68300        4.86900       -2.64300
C          8.64700        6.01700       -1.13400
H          7.61800        6.10800       -0.78700
C          9.43400        5.35100        0.01400
H         10.49700        5.35000       -0.23000
H          9.30700        5.94300        0.92100
C          9.00100        3.90700        0.30800
H          9.26600        3.28500       -0.54700
H          9.57700        3.54500        1.16100
S          7.23600        3.65700        0.66200
C          7.07300        4.55700        2.22800
H          7.77300        4.15300        2.95900
H          7.28100        5.61600        2.07100
H          6.05600        4.44600        2.60400
C          9.09200        7.47300       -1.39900
O          9.49900        8.18100       -0.48700
N          9.00400        7.96300       -2.63000
H          9.30200        8.91000       -2.78700
H          8.64500        7.39200       -3.38300
