34
0 1
H          8.81600        3.92600        2.88200
C          7.83000        4.29200        3.15900
H          7.69700        4.20800        4.23700
H          7.06200        3.71000        2.65100
C          7.69800        5.74100        2.75700
O          7.41800        6.59400        3.59100
N          7.89000        6.02900        1.47200
H          8.08400        5.27000        0.83500
C          7.76200        7.37000        0.87900
H          8.21300        8.09300        1.55900
C          8.54800        7.41200       -0.43800
H          8.48400        8.41100       -0.87300
H          9.59700        7.18300       -0.24100
O          8.02900        6.46400       -1.34900
H          7.13300        6.75700       -1.57100
C          6.28800        7.77400        0.69000
O          5.83000        7.99600       -0.43200
N          5.52200        7.81200        1.78200
H          5.96900        7.60500        2.67100
C          4.06100        7.92000        1.76800
H          3.76000        8.45900        0.86800
C          3.45100        6.50200        1.69300
H          2.38500        6.55000        1.91300
H          3.56600        6.13600        0.67200
C          4.08400        5.46500        2.61500
O          4.43500        4.37700        2.19600
N          4.29700        5.75700        3.87600
H          4.78800        5.07200        4.41800
H          4.14000        6.69700        4.22200
C          3.51600        8.71900        2.96600
O          3.96700        8.55900        4.09500
N          2.50000        9.54400        2.75700
H          2.12000        9.66400        1.83300
H          2.13500       10.05400        3.54500
