37
0 1
H         -0.65200       10.60900       -8.05200
C         -0.81100       10.93300       -7.02500
H         -1.52800       10.27200       -6.54100
H         -1.18900       11.95300       -7.01300
C          0.49800       10.87400       -6.27400
O          0.60800       10.16000       -5.28400
N          1.48800       11.63700       -6.73600
H          1.30800       12.21700       -7.54300
C          2.83300       11.74400       -6.14700
H          3.18700       10.74100       -5.90800
C          3.78800       12.34000       -7.18900
H          4.79400       12.40400       -6.77200
H          3.81300       11.69400       -8.06800
O          3.34800       13.62900       -7.57000
H          3.45100       14.19200       -6.78900
C          2.83700       12.55200       -4.83500
O          3.41600       13.63600       -4.74900
N          2.13800       12.04500       -3.82000
H          1.66500       11.16200       -3.98200
C          2.05400       12.63600       -2.48200
H          1.86300       13.70500       -2.58400
C          0.88200       12.00200       -1.71800
H          1.03400       10.92300       -1.66900
H          0.86000       12.39100       -0.69900
C         -0.46900       12.30200       -2.38400
H         -0.64900       13.37600       -2.32100
H         -0.42800       12.03100       -3.43800
S         -1.88800       11.44600       -1.64800
C         -1.59400        9.76200       -2.25500
H         -0.66700        9.37100       -1.83800
H         -2.42000        9.11800       -1.95200
H         -1.52500        9.76900       -3.34400
C          3.36700       12.46100       -1.70200
O          4.02900       11.43300       -1.78500
N          3.74700       13.44400       -0.89700
H          4.60700       13.32700       -0.38600
H          3.20900       14.29100       -0.83600
