34
0 1
H          5.53100        9.46100       -2.31400
C          5.50400       10.23800       -1.55000
H          4.65200       10.89200       -1.72300
H          6.42700       10.81500       -1.58900
C          5.37800        9.59100       -0.19200
O          5.30700        8.37300       -0.09600
N          5.29700       10.41300        0.85300
H          5.27400       11.40600        0.67400
C          5.26200       10.02000        2.27800
H          6.18800        9.49800        2.51900
C          5.19300       11.29900        3.12400
H          5.05900       11.04900        4.17800
H          6.13300       11.84200        3.01500
O          4.13500       12.13700        2.68700
H          3.28000       11.78500        3.01100
C          4.10800        9.09600        2.69500
O          4.09000        8.61400        3.82400
N          3.13700        8.86000        1.81200
H          3.24400        9.27500        0.90100
C          1.91500        8.09900        2.07800
H          2.07400        7.48900        2.96900
C          0.76800        9.08700        2.37700
H          0.56400        9.68500        1.49000
H         -0.13600        8.52800        2.61800
C          1.08600       10.03500        3.52300
O          1.74000       11.05400        3.36100
N          0.64900        9.73100        4.72200
H          0.91400       10.35500        5.46300
H          0.14700        8.87800        4.88100
C          1.58300        7.10200        0.94700
O          0.46600        6.60600        0.86000
N          2.52100        6.80300        0.05400
H          3.45000        7.19500        0.13500
H          2.29300        6.15000       -0.67700
