31
0 1
H          4.04900        2.72300      -16.75000
C          3.91400        2.35600      -15.73300
H          4.79000        1.78500      -15.43200
H          3.02700        1.72700      -15.68700
C          3.74100        3.53500      -14.80500
O          3.76400        4.67700      -15.24500
N          3.56000        3.26100      -13.51500
H          3.55700        2.29600      -13.21600
C          3.41900        4.27900      -12.46800
H          4.11600        5.09300      -12.66900
C          1.99100        4.83900      -12.47900
H          1.75700        5.23400      -13.46900
H          1.29000        4.03700      -12.24600
O          1.85100        5.87100      -11.52000
H          1.92100        6.71700      -11.97700
C          3.73300        3.69400      -11.08700
O          3.54000        2.50100      -10.86300
N          4.18200        4.53300      -10.15000
H          4.30100        5.50600      -10.39100
C          4.33100        4.18800       -8.72900
H          4.67900        3.15700       -8.65200
C          5.39600        5.09600       -8.10500
H          5.56600        4.80800       -7.06600
H          6.33000        4.97900       -8.65500
O          4.98700        6.45000       -8.16400
H          4.42400        6.62500       -7.40200
C          3.01600        4.28000       -7.93300
O          3.01800        4.11800       -6.71900
N          1.88500        4.58900       -8.55900
H          1.03900        4.64400       -8.01800
H          1.88900        4.77100       -9.55200
