37
0 1
H         -1.47100       12.14500        6.05900
C         -2.24200       11.67800        5.44800
H         -2.80200       12.44200        4.91200
H         -2.91800       11.10800        6.08300
C         -1.59300       10.74400        4.45400
O         -1.86200        9.54900        4.46500
N         -0.74100       11.29200        3.59200
H         -0.56600       12.28500        3.64900
C          0.03500       10.54900        2.59200
H         -0.56900        9.72700        2.20600
C          0.37400       11.48700        1.42700
H          1.00700       10.96400        0.70700
H         -0.54600       11.79400        0.92900
O          1.04700       12.63600        1.90800
H          1.79400       12.33800        2.45100
C          1.33700        9.97900        3.17200
O          2.15700       10.72800        3.70100
N          1.56200        8.67500        3.00000
H          0.79900        8.11500        2.64000
C          2.76700        7.95100        3.44600
H          3.59200        8.66300        3.51200
C          2.54000        7.37000        4.86100
H          3.50300        7.02200        5.23700
H          2.20800        8.17300        5.52100
C          1.54400        6.19400        4.96800
H          1.90300        5.34700        4.38400
H          1.48800        5.87600        6.01000
C          0.14800        6.57300        4.48900
O         -0.17500        6.46700        3.31500
N         -0.67100        7.14100        5.34200
H         -0.39700        7.29400        6.29300
H         -1.46400        7.63500        4.94400
C          3.21900        6.85500        2.46100
O          4.39800        6.54100        2.38600
N          2.32000        6.26400        1.68100
H          2.64200        5.55700        1.04100
H          1.33500        6.44300        1.81300
