40
0 1
H          4.26200        5.14600      -13.48300
C          4.96600        5.95900      -13.65200
H          4.60700        6.59000      -14.46300
H          5.94300        5.55300      -13.91100
C          5.08800        6.78600      -12.39500
O          4.82300        7.98300      -12.41700
N          5.49600        6.15100      -11.29900
H          5.74000        5.17300      -11.36600
C          5.74200        6.80700      -10.00400
H          4.84600        7.35100       -9.70500
C          6.06400        5.76500       -8.92200
H          6.38700        6.28100       -8.01700
C          4.85800        4.89100       -8.57900
H          5.13400        4.19700       -7.78500
H          4.03600        5.51600       -8.23200
H          4.54100        4.32200       -9.45200
O          7.09800        4.91600       -9.36400
H          7.82600        5.48600       -9.65200
C          6.90500        7.79700      -10.10200
O          8.03600        7.39900      -10.37400
N          6.63400        9.07900       -9.85500
H          5.69200        9.34100       -9.60300
C          7.58300       10.18400      -10.02900
H          8.58300        9.83700       -9.76500
C          7.59600       10.61100      -11.51000
H          8.40100       11.32900      -11.67300
H          7.81500        9.73000      -12.11700
C          6.27300       11.23400      -11.99100
H          5.42600       10.68400      -11.58200
H          6.20600       12.26600      -11.64500
C          6.16700       11.20900      -13.50900
O          6.62500       12.09900      -14.20300
N          5.57600       10.18700      -14.08400
H          5.21200        9.42500      -13.51900
H          5.52500       10.20500      -15.08500
C          7.23100       11.36100       -9.10400
O          6.12700       11.44200       -8.57600
N          8.15100       12.29500       -8.90100
H          9.05000       12.23200       -9.34900
H          7.91400       13.07000       -8.30300
