37
0 1
H          3.04700       16.64700       -8.41900
C          3.20200       15.69500       -8.92200
H          2.90700       14.88100       -8.26100
H          4.25200       15.58600       -9.18900
C          2.35900       15.64800      -10.17400
O          1.51200       14.77000      -10.31200
N          2.60200       16.58500      -11.08900
H          3.34000       17.25100      -10.90600
C          1.91100       16.73500      -12.38500
H          0.83500       16.67400      -12.21900
C          2.21000       18.11600      -12.99600
H          1.75400       18.17500      -13.98500
C          1.66600       19.26300      -12.14500
H          1.85900       20.20800      -12.65300
H          0.59000       19.14600      -12.01400
H          2.15200       19.28000      -11.17000
O          3.60200       18.29400      -13.11600
H          3.89500       17.63500      -13.76200
C          2.28100       15.61200      -13.36500
O          3.04900       15.80300      -14.30800
N          1.76400       14.41600      -13.09600
H          1.16000       14.35600      -12.28700
C          1.91400       13.21200      -13.90800
H          2.85000       13.28300      -14.46500
C          2.01600       12.00400      -12.95700
H          2.34700       11.13300      -13.52100
H          2.75900       12.20300      -12.18500
C          0.69600       11.64700      -12.29600
O         -0.01400       10.77100      -12.75100
N          0.31800       12.29300      -11.21600
H          0.87100       13.04100      -10.81300
H         -0.57200       12.02700      -10.83700
C          0.77700       13.07900      -14.94500
O         -0.20300       13.81700      -14.91900
N          0.88400       12.13700      -15.87200
H          0.12700       12.03600      -16.52800
H          1.67100       11.51200      -15.87700
