37
0 1
H          9.48400        8.29600       -0.50300
C          8.89800        7.39000       -0.36200
H          9.46400        6.66700        0.22300
H          8.65000        6.96000       -1.33200
C          7.61900        7.72700        0.36400
O          6.53500        7.50600       -0.15800
N          7.73900        8.26700        1.57400
H          8.66400        8.34100        1.96900
C          6.61000        8.58200        2.47100
H          5.90500        7.75300        2.41700
C          7.09400        8.68100        3.93200
H          7.62700        9.62100        4.08200
C          5.95400        8.57200        4.94600
H          6.35200        8.63600        5.95900
H          5.24400        9.38600        4.80600
H          5.43500        7.62100        4.82200
O          7.97700        7.62100        4.22500
H          8.18200        7.66300        5.16300
C          5.85100        9.85000        2.03500
O          5.82800       10.85300        2.74600
N          5.24500        9.83800        0.84500
H          5.33300        8.99700        0.27800
C          4.51200       10.97400        0.24600
H          5.07800       11.88300        0.45100
C          4.42400       10.83400       -1.28600
H          3.92000       11.71400       -1.68700
C          5.79400       10.72800       -1.95600
H          5.66300       10.72900       -3.03800
H          6.41300       11.57800       -1.67100
H          6.28800        9.80100       -1.66500
O          3.68200        9.69200       -1.63400
H          2.78300        9.84700       -1.31600
C          3.11900       11.18200        0.86800
O          2.10100       11.19000        0.18300
N          3.03200       11.32100        2.18300
H          3.87800       11.30900        2.73800
H          2.12300       11.44400        2.59700
