34
0 1
H          6.34400       12.09900        3.04300
C          5.56800       11.63900        3.65200
H          5.11300       12.39300        4.29300
H          5.99900       10.85000        4.26600
C          4.50700       11.05200        2.75200
O          3.34600       11.43700        2.83300
N          4.89900       10.10200        1.90400
H          5.86900        9.81900        1.92300
C          4.04500        9.41300        0.91400
H          3.42700       10.16300        0.42000
C          4.91200        8.74300       -0.16800
H          4.26500        8.22700       -0.87800
C          5.76800        9.74500       -0.94300
H          5.13100       10.50700       -1.39000
H          6.49600       10.21900       -0.28400
H          6.30100        9.22100       -1.73600
O          5.78000        7.81000        0.43100
H          5.22300        7.07600        0.72400
C          3.07900        8.40100        1.55700
O          3.06400        7.22300        1.21100
N          2.29000        8.85700        2.52900
H          2.37200        9.84000        2.76100
C          1.34500        8.06500        3.32000
H          1.81900        7.11900        3.59000
C          1.05300        8.84600        4.61300
H          0.29700        8.30400        5.18700
H          1.95900        8.91300        5.21600
S          0.43800       10.52500        4.26000
H          1.60100       11.09200        3.89600
C          0.04000        7.69200        2.58600
O         -0.72300        6.86600        3.07000
N         -0.25000        8.26700        1.42400
H          0.37200        8.95400        1.03700
H         -1.10700        8.00400        0.96700
