40
0 1
H          5.62900        4.24800       -3.85700
C          6.52200        4.83700       -3.65900
H          6.87900        5.28200       -4.58700
H          7.30000        4.20400       -3.23500
C          6.18900        5.94200       -2.68500
O          6.33400        7.11300       -3.00400
N          5.73500        5.57000       -1.49100
H          5.65300        4.58500       -1.28500
C          5.39000        6.50600       -0.40900
H          6.12300        7.31300       -0.41300
C          4.00400        7.14500       -0.65200
H          4.02000        7.66400       -1.61100
C          2.85400        6.13500       -0.66500
H          3.00800        5.40200       -1.45600
H          2.78300        5.62600        0.29500
H          1.91800        6.66100       -0.85700
O          3.68500        8.08100        0.35300
H          4.33000        8.80100        0.33100
C          5.47300        5.81500        0.95700
O          5.34000        4.59500        1.05800
N          5.69500        6.60000        2.01100
H          5.76200        7.59400        1.82400
C          5.71200        6.20800        3.42800
H          6.30800        5.29700        3.50300
C          6.45400        7.30300        4.23600
H          6.69400        6.89800        5.22100
H          7.40600        7.49300        3.73600
C          5.75300        8.66600        4.44700
H          5.11100        8.60500        5.32500
H          6.50700        9.42500        4.65700
C          4.91900        9.12300        3.25500
O          5.43100        9.48500        2.20500
N          3.61400        8.99800        3.32000
H          3.20700        8.53900        4.12100
H          3.10300        9.14200        2.46500
C          4.30600        5.84900        3.97300
O          3.80800        6.43100        4.93100
N          3.61100        4.91300        3.34200
H          4.01400        4.45800        2.53400
H          2.69000        4.68400        3.67700
