37
0 1
H         -4.98700      -10.25000       -4.04800
C         -4.92300      -10.58600       -5.08100
H         -5.62400      -10.02100       -5.69500
H         -5.15800      -11.64800       -5.14100
C         -3.52300      -10.35900       -5.59600
O         -3.32900       -9.64700       -6.57500
N         -2.53800      -10.97600       -4.95000
H         -2.77600      -11.57900       -4.17500
C         -1.11100      -10.92800       -5.32400
H         -0.86000       -9.90700       -5.61100
C         -0.23000      -11.31000       -4.12100
H          0.81600      -11.31400       -4.43100
C         -0.37600      -10.33500       -2.95200
H         -0.13800       -9.32500       -3.28200
H         -1.39200      -10.36100       -2.55900
H          0.31500      -10.62200       -2.15900
O         -0.58000      -12.59200       -3.65600
H         -0.38400      -13.20100       -4.38200
C         -0.81300      -11.82200       -6.54000
O          0.01000      -12.73400       -6.46000
N         -1.51000      -11.57200       -7.65600
H         -2.15800      -10.79300       -7.59800
C         -1.70800      -12.50400       -8.77500
H         -2.35400      -11.99400       -9.49100
C         -0.35600      -12.75300       -9.48700
H          0.18400      -11.81100       -9.57400
H          0.24500      -13.43400       -8.88500
C         -0.47800      -13.33400      -10.88400
O         -1.52900      -13.35400      -11.49900
N          0.59800      -13.84400      -11.43200
H          0.49100      -14.22000      -12.35800
H          1.47000      -13.84600      -10.93700
C         -2.47700      -13.78500       -8.35500
O         -2.76100      -14.02200       -7.18500
N         -2.88100      -14.61500       -9.30600
H         -3.39700      -15.43600       -9.03700
H         -2.67500      -14.40700      -10.27400
