34
0 1
H          3.31300        8.10000       -3.24500
C          3.51400        8.93700       -2.57900
H          2.64900        9.59700       -2.54100
H          4.37900        9.49200       -2.94100
C          3.80800        8.41700       -1.19300
O          4.88900        8.64200       -0.66300
N          2.85100        7.70800       -0.60100
H          1.99000        7.54500       -1.10200
C          2.94300        7.12300        0.75000
H          3.40600        7.85500        1.41200
C          1.53600        6.82400        1.30000
H          1.62800        6.35200        2.27900
C          0.68400        8.08400        1.45400
H         -0.27200        7.81600        1.90500
H          1.19300        8.79700        2.10100
H          0.49900        8.54100        0.48200
O          0.85700        5.95100        0.42900
H          1.32700        5.10600        0.48100
C          3.83200        5.86900        0.77900
O          3.36200        4.76500        1.04600
N          5.12200        6.02400        0.47300
H          5.44100        6.95800        0.23000
C          6.09900        4.93200        0.36900
H          5.65900        4.13200       -0.22800
C          7.33000        5.46900       -0.37800
H          8.06500        4.66700       -0.47700
H          7.03300        5.80100       -1.37500
S          8.07200        6.86100        0.52800
H          9.07200        7.10700       -0.32500
C          6.50700        4.28500        1.71100
O          7.16700        3.25300        1.71800
N          6.14100        4.85000        2.85500
H          5.61100        5.70300        2.84200
H          6.41800        4.40600        3.71400
