37
0 1
H          0.10600        3.85800       -4.99400
C          1.16600        3.61600       -4.94900
H          1.69700        4.11900       -5.75500
H          1.29800        2.53800       -5.04300
C          1.72900        4.06600       -3.62200
O          2.22100        3.25400       -2.84900
N          1.64300        5.36300       -3.34000
H          1.20300        5.97300       -4.01400
C          2.15300        6.00600       -2.11200
H          3.13200        5.58200       -1.88800
C          2.34400        7.51700       -2.33900
H          2.70400        7.97600       -1.41700
C          3.35100        7.82500       -3.44700
H          3.49500        8.90300       -3.51000
H          4.30700        7.35400       -3.21900
H          2.98700        7.46200       -4.40800
O          1.11700        8.10400       -2.70000
H          0.56400        8.08600       -1.90800
C          1.26400        5.73200       -0.88500
O          0.80200        6.65600       -0.21800
N          0.99400        4.45800       -0.59300
H          1.42300        3.75900       -1.19400
C          0.06500        3.97200        0.44900
H         -0.82400        4.60100        0.40000
C         -0.40300        2.54500        0.10000
H         -0.81800        2.55900       -0.90900
C          0.70100        1.48500        0.14300
H          0.27500        0.51500       -0.11300
H          1.47700        1.72300       -0.58300
H          1.14300        1.42500        1.13700
O         -1.42000        2.13600        0.97700
H         -1.04800        2.19900        1.87000
C          0.58400        4.11000        1.89900
O          0.28600        3.29800        2.76900
N          1.38300        5.12300        2.20300
H          1.71300        5.20500        3.15000
H          1.55800        5.83800        1.51300
