40
0 1
H         -3.95400        7.01200       -4.17600
C         -3.15800        6.58100       -4.77900
H         -2.68800        7.36200       -5.37600
H         -3.56300        5.81400       -5.43900
C         -2.12000        5.96100       -3.87600
O         -0.95700        6.34300       -3.91500
N         -2.52900        4.97200       -3.08100
H         -3.49200        4.68300       -3.15300
C         -1.64600        4.25200       -2.13700
H         -1.16400        4.99600       -1.50200
C         -2.47200        3.33300       -1.22200
H         -3.28000        3.91700       -0.77900
C         -3.08400        2.12700       -1.94100
H         -2.30300        1.47000       -2.32300
H         -3.69800        1.56800       -1.23500
H         -3.71300        2.46100       -2.76600
O         -1.66800        2.83800       -0.18200
H         -0.81500        2.58200       -0.56500
C         -0.51400        3.45700       -2.81000
O          0.36200        2.93700       -2.12400
N         -0.54000        3.33700       -4.13700
H         -1.33500        3.73900       -4.62000
C          0.49500        2.73100       -4.97300
H          0.86800        1.83200       -4.48100
C         -0.13300        2.33400       -6.32400
H         -0.48300        3.22500       -6.84800
H          0.65400        1.88500       -6.93300
C         -1.27900        1.30500       -6.22300
H         -1.37500        0.81900       -7.19400
H         -1.00800        0.53600       -5.49900
C         -2.65800        1.86900       -5.86200
O         -2.87700        3.05200       -5.64500
N         -3.66300        1.02700       -5.76900
H         -3.52800        0.04800       -5.94000
H         -4.56000        1.42500       -5.55600
C          1.71100        3.65500       -5.19900
O          2.72700        3.21700       -5.72300
N          1.64300        4.93300       -4.83800
H          0.79800        5.30600       -4.42600
H          2.44900        5.51500       -4.98800
