44
0 1
H          6.80800       10.32600       -1.28900
C          6.52200        9.38300       -1.75100
H          6.55300        9.48600       -2.83500
H          5.51600        9.10600       -1.44000
C          7.49400        8.30500       -1.33400
O          8.14800        7.70500       -2.17700
N          7.56500        8.03600       -0.03000
H          6.96600        8.54500        0.59700
C          8.48800        7.05000        0.56000
H          9.50900        7.32200        0.28900
C          8.36100        7.10900        2.09100
H          9.09000        6.42100        2.52300
H          8.63500        8.11100        2.42400
C          7.00900        6.76600        2.65000
C          6.08600        7.66100        3.07200
H          6.22200        8.73500        3.08100
N          4.94700        6.99600        3.48400
H          4.12500        7.46100        3.84100
C          5.08000        5.63100        3.35600
C          4.21700        4.55800        3.62500
H          3.22500        4.73800        4.00900
C          4.66200        3.24600        3.38700
H          4.01200        2.40600        3.59200
C          5.96200        3.02700        2.89600
H          6.30900        2.01600        2.72900
C          6.82000        4.11300        2.63500
H          7.82100        3.92400        2.27300
C          6.39900        5.44700        2.84200
C          8.27600        5.61100        0.05500
O          9.16700        4.78000        0.19400
N          7.11600        5.31100       -0.53600
H          6.40800        6.02600       -0.57600
C          6.77300        3.99700       -1.08200
H          7.02200        3.24100       -0.33500
C          5.25800        3.94400       -1.34600
H          5.03700        4.49000       -2.26500
H          4.96000        2.90400       -1.49300
S          4.28600        4.67700        0.00900
H          4.74800        3.90600        1.00700
C          7.55000        3.62800       -2.36500
O          7.44300        2.50600       -2.84500
N          8.30000        4.54500       -2.96800
H          8.37500        5.47600       -2.58200
H          8.80200        4.28200       -3.79900
