47
0 1
H          8.40800        6.67600       -4.69800
C          7.62700        6.05100       -4.26600
H          8.08000        5.20800       -3.74600
H          6.97400        5.69000       -5.05700
C          6.82100        6.87500       -3.29000
O          7.08300        8.05600       -3.11400
N          5.86800        6.23400       -2.61700
H          5.76600        5.24500       -2.77900
C          4.93000        6.85400       -1.66300
H          4.37500        7.64200       -2.17400
C          3.94100        5.76700       -1.20900
H          3.17400        6.22700       -0.58400
H          3.44200        5.34700       -2.08400
C          4.58900        4.65400       -0.44100
C          4.69300        4.61200        0.90400
H          4.27100        5.34800        1.57800
N          5.51400        3.57100        1.28000
H          5.83400        3.44600        2.23500
C          5.94700        2.85000        0.18800
C          6.79000        1.73900        0.04700
H          7.23800        1.28200        0.91700
C          7.03700        1.22700       -1.23800
H          7.67800        0.36500       -1.36400
C          6.43600        1.82700       -2.36000
H          6.61500        1.41400       -3.34400
C          5.59700        2.94900       -2.20900
H          5.12500        3.38000       -3.07800
C          5.34100        3.49900       -0.93200
C          5.60400        7.50400       -0.43300
O          4.97400        8.27600        0.28600
N          6.88100        7.20000       -0.17800
H          7.31800        6.53400       -0.79400
C          7.72000        7.81000        0.86200
H          7.19800        8.67000        1.28300
C          7.95800        6.78700        1.99700
H          8.40300        5.88300        1.58200
H          8.67100        7.21400        2.70200
C          6.74200        6.38600        2.82400
O          6.72500        5.34400        3.45600
N          5.67600        7.15400        2.85900
H          5.56600        7.91700        2.20300
H          4.93700        6.86600        3.47200
C          9.03000        8.40000        0.28900
O          9.99700        8.60600        1.01100
N          9.10800        8.67100       -1.00900
H          9.96700        9.06000       -1.36100
H          8.30900        8.53800       -1.61500
