50
0 1
H          1.72700        1.24900        1.46200
C          2.20100        1.51600        0.51900
H          1.70700        0.98900       -0.29600
H          3.25500        1.24500        0.54100
C          2.06500        3.00300        0.29400
O          1.47700        3.42700       -0.69200
N          2.64300        3.80100        1.19100
H          3.14200        3.37600        1.95500
C          2.55800        5.27200        1.17400
H          1.50400        5.55700        1.17500
C          3.19900        5.81300        2.46200
H          3.11300        6.90100        2.46100
H          2.62000        5.45100        3.31300
C          4.64200        5.45700        2.68000
C          5.09200        4.49100        3.51300
H          4.46300        3.87000        4.13900
N          6.47100        4.43400        3.46000
H          7.02700        3.80400        4.02000
C          6.98600        5.37600        2.59600
C          8.29500        5.71700        2.22700
H          9.13700        5.18900        2.64800
C          8.49600        6.76300        1.31100
H          9.49800        7.04700        1.01800
C          7.39000        7.45300        0.78400
H          7.54600        8.26500        0.08600
C          6.08000        7.10500        1.16700
H          5.24400        7.66200        0.76800
C          5.83900        6.05300        2.07900
C          3.17500        5.93900       -0.06900
O          2.92700        7.11500       -0.31400
N          3.95600        5.20100       -0.86400
H          4.10700        4.24200       -0.60200
C          4.50300        5.65300       -2.15200
H          4.90400        6.66000       -2.03000
C          5.65100        4.71900       -2.56900
H          5.26800        3.70100       -2.66100
H          6.03000        5.03000       -3.54300
C          6.81900        4.72600       -1.57600
H          7.25000        5.72800       -1.55200
H          6.45400        4.48800       -0.57700
S          8.12300        3.53900       -1.99600
C          9.29700        3.89600       -0.66500
H          9.60300        4.94100       -0.72000
H          8.82500        3.70500        0.29800
H         10.17300        3.25700       -0.77300
C          3.45000        5.72500       -3.27700
O          3.72800        6.24900       -4.34800
N          2.24500        5.19700       -3.08800
H          2.01100        4.75000       -2.21200
H          1.57300        5.26700       -3.83300
