54
0 1
H          0.87500        7.89500       -2.80700
C          1.10000        7.18100       -2.01700
H          0.91900        6.16700       -2.36700
H          0.47100        7.38800       -1.15100
C          2.54800        7.32500       -1.61400
O          2.84300        7.63100       -0.46600
N          3.45800        7.09700       -2.55900
H          3.13800        6.90100       -3.49300
C          4.89000        7.34200       -2.36000
H          5.15500        7.02300       -1.35100
C          5.69900        6.49100       -3.34500
H          5.42200        5.44400       -3.21300
H          5.42600        6.77800       -4.36200
C          7.18800        6.60500       -3.21600
C          7.97600        5.78500       -2.48500
H          7.62200        4.93300       -1.91500
N          9.29100        6.19600       -2.58100
H         10.05800        5.72000       -2.12700
C          9.41800        7.31100       -3.38000
C         10.51700        8.09000       -3.76900
H         11.51200        7.83800       -3.43400
C         10.30700        9.19900       -4.60500
H         11.14200        9.81000       -4.92100
C          9.00500        9.51500       -5.03400
H          8.84500       10.37100       -5.67700
C          7.90700        8.72700       -4.63600
H          6.91200        8.98400       -4.97400
C          8.08500        7.60200       -3.80100
C          5.21600        8.84000       -2.47800
O          4.72600        9.51200       -3.38300
N          6.05900        9.35100       -1.57700
H          6.40400        8.73500       -0.85700
C          6.31000       10.78900       -1.38300
H          5.87700       11.33900       -2.21900
C          5.57400       11.23800       -0.10700
H          5.73300       12.30700        0.04200
H          4.50300       11.09600       -0.25900
C          5.99200       10.49300        1.15100
C          5.27300        9.35500        1.56700
H          4.40300        9.02800        1.01200
C          5.67800        8.64300        2.71300
H          5.12900        7.77300        3.04000
C          6.79900        9.07300        3.45100
O          7.18500        8.38400        4.55700
H          7.88500        8.83300        5.03000
C          7.51700       10.21700        3.04000
H          8.37500       10.55200        3.60100
C          7.11100       10.92400        1.89100
H          7.66000       11.80200        1.57400
C          7.80700       11.16600       -1.36500
O          8.18500       12.25300       -0.94500
N          8.69800       10.28700       -1.80200
H          8.39200        9.42500       -2.22400
H          9.66800       10.55300       -1.80900
