50
0 1
H          2.99500        3.32300       -1.27500
C          3.78400        3.49300       -2.00700
H          3.34100        3.64700       -2.99000
H          4.45600        2.63800       -2.02800
C          4.55600        4.73000       -1.61100
O          4.24500        5.35500       -0.60700
N          5.57100        5.07800       -2.40000
H          5.73800        4.53200       -3.22800
C          6.33800        6.31500       -2.22200
H          6.55800        6.43900       -1.15900
C          7.67000        6.20700       -2.97700
H          8.21700        5.34500       -2.59400
H          7.46000        6.02100       -4.03200
C          8.56500        7.40600       -2.87700
C          8.60800        8.42100       -3.77000
H          8.00300        8.47900       -4.66600
N          9.51100        9.37600       -3.34900
H          9.66500       10.24700       -3.83700
C         10.13200        9.00500       -2.17600
C         11.13200        9.60200       -1.39400
H         11.57700       10.53700       -1.70100
C         11.55600        8.95700       -0.21900
H         12.33500        9.39300        0.39100
C         10.96700        7.73600        0.16000
H         11.29500        7.24100        1.06400
C          9.96400        7.14700       -0.63600
H          9.52700        6.20500       -0.33900
C          9.52600        7.75900       -1.83100
C          5.54500        7.55000       -2.68000
O          4.84500        7.51400       -3.69300
N          5.71700        8.66800       -1.97400
H          6.32100        8.62000       -1.16000
C          5.16100        9.99700       -2.26600
H          4.10400        9.88200       -2.50700
C          5.26300       10.84900       -0.98500
H          4.99100       11.88200       -1.20400
H          4.54300       10.46700       -0.26100
C          6.62700       10.80900       -0.33600
N          7.10500        9.75500        0.44600
C          8.37400       10.06200        0.74200
H          9.03800        9.43200        1.31900
N          8.71300       11.23900        0.18800
H          9.63300       11.65200        0.22600
C          7.62500       11.72200       -0.50400
H          7.57100       12.61300       -1.11500
C          5.81600       10.66900       -3.49300
O          6.42900       11.72800       -3.41700
N          5.70300       10.05900       -4.66300
H          5.22300        9.16800       -4.70700
H          6.09900       10.49500       -5.47800
