57
0 1
H         15.63600       11.93800        3.05900
C         15.65400       12.93000        2.61600
H         16.16400       12.89800        1.65600
H         16.17400       13.61500        3.28500
C         14.23900       13.41400        2.42000
O         13.84100       14.41000        3.00900
N         13.46400       12.70300        1.60200
H         13.84200       11.86100        1.19600
C         12.08800       13.08700        1.23600
H         12.09800       14.12100        0.88900
C         11.61200       12.20000        0.07800
H         10.60600       12.50700       -0.21100
H         12.25900       12.37700       -0.78200
C         11.60100       10.72700        0.36200
C         10.58300       10.05100        0.94000
H          9.64400       10.49900        1.25000
N         10.93000        8.72100        1.08000
H         10.31400        8.02500        1.47500
C         12.19700        8.47300        0.59700
C         12.98000        7.31200        0.51400
H         12.59800        6.36900        0.87500
C         14.26400        7.39400       -0.05100
H         14.87900        6.50800       -0.12900
C         14.74700        8.63000       -0.51900
H         15.73300        8.68400       -0.96000
C         13.95300        9.79000       -0.42800
H         14.33000       10.72700       -0.81100
C         12.65700        9.74200        0.13300
C         11.07800       13.03600        2.40000
O          9.96100       13.52300        2.26100
N         11.45700       12.45900        3.54200
H         12.38900       12.07500        3.58300
C         10.69400       12.49000        4.79600
H          9.62700       12.49100        4.56600
C         11.01400       11.21600        5.58900
H         10.43800       11.21800        6.51500
H         10.68100       10.35500        5.00700
C         12.46400       11.02600        5.91800
C         13.07400       11.47100        7.03900
H         12.57300       12.00500        7.84000
N         14.41900       11.15900        6.99100
H         15.07000       11.39500        7.72600
C         14.74600       10.50100        5.82400
C         15.95000        9.98800        5.31800
H         16.86200       10.07300        5.88900
C         15.94800        9.35300        4.06400
H         16.86400        8.94200        3.66100
C         14.75100        9.25200        3.33200
H         14.75400        8.75700        2.37100
C         13.54900        9.77400        3.84800
H         12.63400        9.67200        3.28300
C         13.51400       10.40600        5.11100
C         10.95900       13.75000        5.64800
O         10.38400       13.90400        6.71900
N         11.83400       14.65800        5.23100
H         12.33800       14.52800        4.36400
H         11.98600       15.47200        5.80100
