50
0 1
H         16.83200       15.16500        6.92000
C         17.02400       16.17200        6.55600
H         17.97100       16.53500        6.95200
H         16.21700       16.83200        6.86600
C         17.09700       16.15100        5.04700
O         18.10800       16.53300        4.47400
N         16.01900       15.69900        4.41200
H         15.24600       15.39500        4.99200
C         15.91000       15.56300        2.94500
H         16.52300       16.32800        2.46400
C         16.45200       14.18200        2.54100
H         16.44100       14.11300        1.45300
H         17.49400       14.10600        2.85600
C         15.69100       13.01100        3.09300
C         15.99500       12.35000        4.23300
H         16.84600       12.57500        4.86500
N         15.04300       11.37900        4.47700
H         15.06600       10.76700        5.27900
C         14.06600       11.37100        3.50500
C         12.90300       10.60800        3.32500
H         12.63500        9.84400        4.03800
C         12.09400       10.85100        2.20200
H         11.19500       10.27100        2.04400
C         12.46000       11.84600        1.27700
H         11.83900       12.02600        0.41000
C         13.63100       12.60500        1.46900
H         13.90100       13.36600        0.75000
C         14.46200       12.39300        2.59100
C         14.47300       15.73600        2.42600
O         14.25800       16.15700        1.29300
N         13.48500       15.42600        3.26600
H         13.76500       15.05600        4.16500
C         12.04200       15.47700        3.01700
H         11.87300       15.06800        2.02000
C         11.35000       14.52100        4.01900
H         10.32900       14.34800        3.67600
H         11.86200       13.55900        3.96600
C         11.28500       14.93800        5.50600
H         10.39100       15.54300        5.66000
H         11.16800       14.04300        6.11700
C         12.49800       15.71700        6.01000
O         13.60700       15.21000        6.11900
N         12.35900       16.99800        6.26100
H         13.16500       17.50200        6.57800
H         11.49000       17.45100        6.01500
C         11.48300       16.91900        2.99800
O         10.60300       17.29100        3.76900
N         12.02300       17.78200        2.14900
H         12.77300       17.47400        1.54300
H         11.67900       18.72700        2.13000
