47
0 1
H          1.92200        9.52600       -9.74300
C          1.30700       10.03000       -9.00000
H          0.26700       10.04000       -9.31800
H          1.65900       11.05300       -8.86900
C          1.42300        9.30300       -7.68100
O          1.86300        9.87900       -6.69500
N          1.02200        8.03300       -7.66000
H          0.70500        7.61800       -8.51900
C          1.17200        7.17000       -6.48400
H          0.82900        7.72200       -5.60800
C          0.28900        5.92300       -6.63500
H         -0.75700        6.23000       -6.60000
H          0.47200        5.48600       -7.61800
C          0.50300        4.85300       -5.60300
C          1.05000        3.63900       -5.84400
H          1.39000        3.29900       -6.81500
N          1.11600        2.91500       -4.67100
H          1.49600        1.98100       -4.61100
C          0.60600        3.62400       -3.60700
C          0.45000        3.32300       -2.24500
H          0.75200        2.36000       -1.86200
C         -0.10500        4.29100       -1.39100
H         -0.23800        4.07800       -0.33800
C         -0.48400        5.54200       -1.90800
H         -0.89600        6.29300       -1.24700
C         -0.32900        5.83100       -3.27900
H         -0.62800        6.79800       -3.65500
C          0.21300        4.87700       -4.16800
C          2.63700        6.77900       -6.23600
O          3.37500        6.45200       -7.16500
N          3.02700        6.73700       -4.96000
H          2.35700        7.04200       -4.26500
C          4.31800        6.25700       -4.45300
H          5.10700        6.71100       -5.05500
C          4.47800        6.76700       -3.00400
H          5.34200        6.30000       -2.53100
H          4.64900        7.84300       -3.02700
C          3.24100        6.51800       -2.15800
O          2.43000        7.40000       -1.94700
N          3.00600        5.29900       -1.74800
H          3.61500        4.55600       -2.06800
H          2.09200        5.12600       -1.36300
C          4.49600        4.72200       -4.59200
O          4.67600        3.99600       -3.61700
N          4.43200        4.18900       -5.80300
H          4.55600        3.19600       -5.90400
H          4.24600        4.79100       -6.59600
