47
0 1
H          3.74500        7.83000       -3.35400
C          2.81200        7.28600       -3.48800
H          2.28300        7.66300       -4.36100
H          2.18700        7.41200       -2.60400
C          3.10300        5.81700       -3.67500
O          2.65500        4.99400       -2.88900
N          3.88800        5.48800       -4.70000
H          4.24800        6.22700       -5.28100
C          4.22700        4.10500       -5.08200
H          3.30400        3.56200       -5.29000
C          5.06500        4.15000       -6.37000
H          5.33000        3.12900       -6.65000
H          4.44200        4.54900       -7.17300
C          6.32600        4.96300       -6.29300
C          6.48600        6.21100       -6.79200
H          5.73000        6.76100       -7.33900
N          7.75200        6.67300       -6.49300
H          8.10200        7.57700       -6.77900
C          8.48000        5.74100       -5.78400
C          9.77600        5.74900       -5.25000
H         10.40800        6.61700       -5.35500
C         10.24300        4.60700       -4.57700
H         11.23800        4.59300       -4.15300
C          9.41600        3.47500       -4.46300
H          9.78200        2.59500       -3.95000
C          8.11800        3.47900       -5.00800
H          7.50200        2.59500       -4.91800
C          7.60500        4.61900       -5.66700
C          4.95900        3.30400       -3.98800
O          4.95700        2.07900       -4.03000
N          5.56900        3.97600       -3.00700
H          5.53800        4.98100       -3.04500
C          6.23300        3.34500       -1.85100
H          6.70200        2.42400       -2.19800
C          7.36600        4.24800       -1.33000
H          8.01900        4.50700       -2.16400
C          6.87500        5.54500       -0.68400
H          7.73700        6.13200       -0.36600
H          6.30100        6.12900       -1.40200
H          6.25600        5.32900        0.18800
O          8.13200        3.56600       -0.36900
H          7.50800        3.12700        0.23000
C          5.26500        2.93500       -0.72400
O          5.70000        2.46100        0.32100
N          3.96000        3.13200       -0.86900
H          3.59200        3.55100       -1.71200
H          3.34900        2.85200       -0.12100
