47
0 1
H         12.34500        1.58500       -0.27100
C         12.41700        2.59400       -0.67400
H         12.70900        2.54900       -1.72200
H         13.15500        3.16700       -0.11600
C         11.07400        3.27600       -0.56700
O         10.50800        3.68900       -1.57600
N         10.55900        3.39700        0.65800
H         11.10100        3.07600        1.44300
C          9.31400        4.12800        0.91500
H          8.53400        3.68500        0.29600
C          8.88000        3.99300        2.38200
H          8.68300        2.94400        2.60400
H          9.69100        4.33300        3.02800
C          7.65000        4.79300        2.68800
C          7.63900        6.01700        3.26400
H          8.51900        6.54100        3.62100
N          6.36500        6.54600        3.20900
H          6.14800        7.49800        3.47400
C          5.48300        5.68300        2.59700
C          4.12400        5.77900        2.26800
H          3.56300        6.66500        2.52500
C          3.50600        4.70900        1.59800
H          2.45700        4.76300        1.34000
C          4.25500        3.56700        1.26200
H          3.77500        2.74600        0.74500
C          5.62400        3.48500        1.58800
H          6.18700        2.60500        1.31900
C          6.27200        4.53900        2.26900
C          9.42400        5.60900        0.51300
O         10.48600        6.21900        0.61900
N          8.30700        6.18400        0.06400
H          7.45800        5.63900        0.07500
C          8.21900        7.56700       -0.39400
H          8.92100        8.16900        0.18700
C          8.66500        7.64300       -1.87200
H          8.43800        8.63100       -2.27100
H          9.74600        7.51000       -1.91400
C          8.02600        6.59700       -2.77400
O          6.93700        6.78500       -3.28500
N          8.63400        5.45100       -2.97700
H          8.17500        4.80000       -3.58400
H          9.49400        5.20200       -2.49900
C          6.82700        8.16200       -0.08900
O          6.66400        8.88400        0.88800
N          5.79600        7.83600       -0.85600
H          4.89200        8.21300       -0.62700
H          5.93700        7.28200       -1.69100
