47
0 1
H          4.40100        9.19600        0.30300
C          4.00300        8.27800       -0.12600
H          4.19200        8.25500       -1.19800
H          2.93000        8.22700        0.05400
C          4.66600        7.08900        0.52500
O          4.00000        6.28000        1.15900
N          5.98800        6.99200        0.38800
H          6.45500        7.68000       -0.18100
C          6.78800        5.83300        0.82300
H          6.39000        4.94600        0.32800
C          8.23800        6.03000        0.35700
H          8.71200        6.76900        1.00600
H          8.77600        5.09000        0.48700
C          8.40300        6.47500       -1.06700
C          8.95400        7.64400       -1.46700
H          9.35900        8.39800       -0.80100
N          8.93200        7.72100       -2.84600
H          9.30900        8.49800       -3.36800
C          8.36500        6.59700       -3.40800
C          8.12000        6.21200       -4.73400
H          8.39500        6.86100       -5.55200
C          7.51300        4.96900       -4.98200
H          7.31600        4.65300       -5.99800
C          7.16400        4.13300       -3.90600
H          6.70000        3.17500       -4.10200
C          7.41700        4.53000       -2.57800
H          7.14900        3.87400       -1.76300
C          8.02300        5.77400       -2.29300
C          6.75200        5.53700        2.33500
O          7.15000        4.45600        2.75400
N          6.27300        6.47600        3.15500
H          5.94500        7.33900        2.74900
C          6.05100        6.30200        4.60100
H          6.84300        5.67100        5.00600
C          6.11400        7.66200        5.31500
H          5.91700        7.52400        6.37800
C          7.47900        8.33600        5.16700
H          8.25700        7.67200        5.54300
H          7.67700        8.57400        4.12300
H          7.48800        9.25700        5.74900
O          5.14800        8.53900        4.77500
H          4.29800        8.30200        5.15900
C          4.72300        5.60700        4.94100
O          4.40300        5.43800        6.11100
N          3.90200        5.22900        3.96800
H          4.13400        5.41300        3.00000
H          3.04200        4.77200        4.21700
