44
0 1
H          2.79000        8.68000       -3.02000
C          3.04300        7.66200       -3.30900
H          3.75900        7.23900       -2.60700
H          3.47400        7.66600       -4.31000
C          1.79100        6.81800       -3.32300
O          1.41300        6.29000       -4.35800
N          1.13400        6.70400       -2.17000
H          1.49300        7.18600       -1.36200
C         -0.11900        5.94800       -2.01300
H          0.01100        4.95100       -2.43900
C         -0.41600        5.80900       -0.51100
H         -1.32300        5.21400       -0.39200
H          0.39700        5.25100       -0.04500
C         -0.60400        7.10300        0.22900
C          0.33900        7.72400        0.97500
H          1.33500        7.34100        1.15900
N         -0.15900        8.92100        1.45200
H          0.36800        9.55300        2.03700
C         -1.45700        9.13300        1.03900
C         -2.36600       10.18100        1.24400
H         -2.08100       11.04500        1.82500
C         -3.65300       10.08800        0.68800
H         -4.36900       10.88500        0.83900
C         -4.01400        8.94900       -0.05300
H         -5.01000        8.87300       -0.46800
C         -3.09200        7.90300       -0.25200
H         -3.38800        7.03000       -0.81800
C         -1.78200        7.97200        0.27500
C         -1.31600        6.58800       -2.74000
O         -2.30400        5.91200       -3.01800
N         -1.24700        7.88800       -3.04100
H         -0.39800        8.37900       -2.80700
C         -2.31300        8.69000       -3.65200
H         -3.26700        8.36500       -3.23800
C         -2.10900       10.15700       -3.25200
H         -2.92900       10.76300       -3.64000
H         -2.10000       10.23700       -2.16300
O         -0.87900       10.63200       -3.76700
H         -0.98500       10.67200       -4.72800
C         -2.39500        8.50600       -5.17900
O         -2.41200        9.47200       -5.93600
N         -2.39600        7.27200       -5.66300
H         -2.41000        7.14200       -6.66000
H         -2.36500        6.49000       -5.02300
