50
0 1
H          4.92200        7.58900        0.55200
C          5.04000        8.20700       -0.33700
H          5.59500        9.11000       -0.09100
H          4.05900        8.47400       -0.72600
C          5.79100        7.42900       -1.39100
O          5.27400        7.20300       -2.47900
N          7.01100        6.99700       -1.06900
H          7.32800        7.13400       -0.12400
C          7.87900        6.24600       -1.99200
H          7.90400        6.78300       -2.94100
C          9.30900        6.20600       -1.43600
H          9.97400        5.90400       -2.24700
H          9.60500        7.21500       -1.14600
C          9.54900        5.28400       -0.27600
C         10.03100        4.02600       -0.38700
H         10.29000        3.55000       -1.32800
N         10.14800        3.45700        0.86500
H         10.51700        2.52900        1.01700
C          9.73000        4.32000        1.85400
C          9.65900        4.20800        3.25100
H          9.99500        3.30800        3.74400
C          9.15200        5.28500        3.99800
H          9.09700        5.22100        5.07700
C          8.72900        6.45400        3.34100
H          8.35200        7.28600        3.92000
C          8.82000        6.56200        1.93800
H          8.52300        7.47900        1.45600
C          9.31900        5.49700        1.15400
C          7.36800        4.82700       -2.31500
O          7.92000        4.14900       -3.17700
N          6.30800        4.38700       -1.63600
H          5.95100        4.99400       -0.90700
C          5.55200        3.16400       -1.90300
H          6.25100        2.33800       -2.03600
C          4.64300        2.86500       -0.69200
H          3.90400        3.66100       -0.58100
H          4.09900        1.94500       -0.90900
C          5.38200        2.65800        0.64600
H          4.71000        2.13200        1.32500
H          6.24700        2.01600        0.47900
C          5.83800        3.93400        1.36000
O          5.55700        5.06000        0.97900
N          6.58700        3.80600        2.42900
H          6.98300        4.65600        2.80300
H          6.86900        2.90300        2.75500
C          4.69800        3.25000       -3.18600
O          4.20600        2.23600       -3.66600
N          4.48300        4.43300       -3.75400
H          4.86900        5.27400       -3.34800
H          3.93000        4.46500       -4.59300
