44
0 1
H          4.32200       -1.73100        0.16400
C          5.29700       -2.08200       -0.16700
H          5.17600       -2.97300       -0.78300
H          5.91800       -2.31500        0.69500
C          5.97000       -1.00700       -0.98800
O          6.32700       -1.23900       -2.13500
N          6.14400        0.17200       -0.39700
H          5.84500        0.28200        0.56200
C          6.81200        1.32400       -1.01100
H          7.60300        0.95900       -1.66800
C          5.80600        2.12300       -1.86300
H          6.36500        2.80400       -2.50700
H          5.27400        1.43600       -2.52300
C          4.79600        2.92700       -1.09700
C          4.86800        4.25700       -0.85900
H          5.65700        4.91400       -1.20900
N          3.80100        4.65000       -0.07700
H          3.65900        5.60300        0.22500
C          2.97400        3.59000        0.22300
C          1.79100        3.48100        0.96900
H          1.36700        4.34900        1.45100
C          1.16200        2.22900        1.07200
H          0.24700        2.12600        1.63900
C          1.71700        1.11000        0.42400
H          1.22100        0.15100        0.49400
C          2.90600        1.23200       -0.32100
H          3.31100        0.37200       -0.83100
C          3.57400        2.47200       -0.43200
C          7.45800        2.21600        0.06200
O          7.30100        1.98000        1.26100
N          8.17300        3.26300       -0.35900
H          8.26400        3.40900       -1.35100
C          8.68200        4.30500        0.53700
H          9.16100        3.82900        1.39600
C          9.75400        5.10800       -0.21500
H         10.55100        4.43900       -0.54200
H          9.31200        5.59700       -1.08600
S         10.45500        6.37100        0.88300
H          9.35300        7.13600        0.93500
C          7.53200        5.18400        1.07800
O          7.23000        6.24700        0.54300
N          6.84700        4.73800        2.12100
H          7.03200        3.81000        2.47400
H          6.08200        5.29000        2.47000
