50
0 1
H         -3.80700        4.62100        3.98100
C         -4.61200        4.64200        4.71300
H         -4.49700        3.81200        5.40900
H         -5.57500        4.56200        4.21100
C         -4.56000        5.94300        5.47900
O         -5.50500        6.72100        5.43600
N         -3.44500        6.18500        6.16800
H         -2.70300        5.50400        6.11800
C         -3.24200        7.33300        7.06800
H         -4.03000        7.31100        7.82100
C         -1.90000        7.15700        7.79900
H         -1.78800        7.98900        8.49600
H         -1.97000        6.25400        8.40600
C         -0.62000        7.05900        7.00500
C         -0.47200        7.04100        5.65600
H         -1.27100        7.10000        4.92900
N          0.86500        6.93200        5.33000
H          1.20500        6.91000        4.38000
C          1.65800        6.86900        6.45300
C          3.04300        6.75400        6.64100
H          3.70700        6.69800        5.79300
C          3.55300        6.71500        7.95100
H          4.61800        6.62800        8.11700
C          2.67400        6.79100        9.04600
H          3.07000        6.76400       10.05200
C          1.28400        6.90700        8.84300
H          0.62100        6.97000        9.69300
C          0.73800        6.94900        7.54100
C         -3.34100        8.72600        6.41500
O         -3.50700        9.71600        7.12000
N         -3.28700        8.81300        5.08500
H         -3.16700        7.95100        4.56800
C         -3.50000       10.04100        4.30900
H         -3.04900       10.86400        4.86700
C         -2.74900        9.93100        2.96400
H         -2.63000       10.94000        2.56500
H         -1.74700        9.53900        3.14600
C         -3.43300        9.08200        1.87200
H         -4.37000        9.56100        1.58600
H         -2.79500        9.07000        0.98800
C         -3.71000        7.63500        2.27300
O         -2.92800        6.97600        2.94300
N         -4.84500        7.08700        1.90600
H         -5.52400        7.61800        1.39100
H         -5.02300        6.15400        2.23100
C         -4.98900       10.40800        4.12300
O         -5.30600       11.39700        3.47400
N         -5.93000        9.61700        4.62500
H         -6.89300        9.88300        4.50700
H         -5.67800        8.77400        5.12500
