50
0 1
H          1.69700        2.86000       -3.23400
C          2.09800        2.16400       -3.96800
H          2.75100        2.68700       -4.66300
H          1.27800        1.69900       -4.51500
C          2.88100        1.08700       -3.25500
O          2.54500       -0.08600       -3.35300
N          3.93400        1.48500       -2.54400
H          4.12100        2.47200       -2.48400
C          4.71200        0.58000       -1.69300
H          4.85400       -0.36100       -2.22800
C          6.09900        1.18500       -1.42100
H          6.62200        1.30900       -2.37000
H          5.97200        2.17300       -0.97700
C          6.95800        0.36000       -0.51100
C          7.11200        0.57000        0.81600
H          6.65600        1.38100        1.37200
N          7.85100       -0.45700        1.36800
H          7.99500       -0.56000        2.36400
C          8.24800       -1.36700        0.41200
C          8.99800       -2.55100        0.47100
H          9.40300       -2.89200        1.41200
C          9.21900       -3.27800       -0.71100
H          9.80300       -4.18800       -0.68700
C          8.67600       -2.82200       -1.92600
H          8.84500       -3.38700       -2.83300
C          7.91300       -1.63800       -1.97000
H          7.49900       -1.30200       -2.91000
C          7.68800       -0.87300       -0.80500
C          3.98800        0.25000       -0.37500
O          3.23100        1.06400        0.15600
N          4.28800       -0.92200        0.19300
H          4.90600       -1.53600       -0.31800
C          3.84500       -1.39100        1.51100
H          2.76400       -1.26300        1.57100
C          4.15700       -2.89400        1.65800
H          5.23600       -3.04700        1.68000
H          3.75600       -3.22500        2.61800
C          3.54100       -3.78100        0.56300
H          3.51600       -4.80500        0.93500
H          2.50900       -3.46600        0.40400
S          4.39000       -3.80700       -1.04800
C          5.94100       -4.64000       -0.61400
H          5.72600       -5.60800       -0.16200
H          6.53300       -4.78800       -1.51700
H          6.51000       -4.02800        0.08400
C          4.47100       -0.57400        2.66400
O          5.35800       -1.02800        3.38000
N          4.04100        0.66500        2.85200
H          3.37900        1.05900        2.19500
H          4.43200        1.20600        3.60400
