44
0 1
H          2.01800        8.92100       -4.87400
C          2.63300        8.09300       -5.22100
H          3.04100        8.31800       -6.20400
H          2.02600        7.18900       -5.27600
C          3.76300        7.86400       -4.24700
O          3.87500        6.79400       -3.66600
N          4.59700        8.88300       -4.04800
H          4.42100        9.74700       -4.53800
C          5.73600        8.84700       -3.11600
H          6.29300        7.92300       -3.27700
C          6.65900       10.03400       -3.42400
H          7.53100        9.98400       -2.76800
H          7.02200        9.93800       -4.44800
C          6.01500       11.37900       -3.27300
C          6.02400       12.12700       -2.14700
H          6.52900       11.84900       -1.22700
N          5.27100       13.26800       -2.34200
H          5.14000       13.97600       -1.63400
C          4.72300       13.30500       -3.60600
C          3.88500       14.22000       -4.26000
H          3.54400       15.10900       -3.75200
C          3.49800       13.96300       -5.58700
H          2.85400       14.65900       -6.10900
C          3.95800       12.80500       -6.24000
H          3.66700       12.62100       -7.26600
C          4.79900       11.89300       -5.57400
H          5.16200       11.02100       -6.09700
C          5.19700       12.11500       -4.23600
C          5.32700        8.86300       -1.62900
O          6.17200        8.67900       -0.75500
N          4.04700        9.08700       -1.32200
H          3.39500        9.19300       -2.08500
C          3.47300        9.11300        0.03000
H          4.16900        9.63100        0.68900
C          2.16900        9.92200       -0.00600
H          1.75000        9.99300        0.99800
H          2.38100       10.92900       -0.36900
O          1.23700        9.30300       -0.87000
H          0.97400        8.47400       -0.44600
C          3.25900        7.70300        0.61500
O          2.17600        7.36800        1.08600
N          4.26200        6.83900        0.56200
H          5.14500        7.13000        0.16200
H          4.11800        5.90600        0.90900
