57
0 1
H          7.41300        5.63600       -3.07600
C          8.17500        4.87800       -3.24900
H          8.54800        4.95100       -4.26900
H          7.75100        3.88800       -3.08400
C          9.31700        5.08700       -2.28300
O          9.62300        4.20600       -1.48900
N          9.94700        6.25900       -2.34700
H          9.61800        6.95400       -3.00100
C         11.06100        6.64300       -1.47500
H         10.91200        6.18100       -0.49700
C         12.38000        6.11600       -2.06000
H         12.23400        5.08400       -2.38400
H         12.64200        6.70200       -2.94300
C         13.53100        6.11300       -1.10300
C         14.59400        6.95000       -1.11700
H         14.75400        7.74500       -1.83600
N         15.44500        6.63400       -0.07700
H         16.27000        7.17500        0.15500
C         14.98600        5.55400        0.64700
C         15.49000        4.85400        1.75400
H         16.44500        5.12400        2.17800
C         14.74000        3.79600        2.29400
H         15.11500        3.24000        3.14200
C         13.50200        3.45200        1.72100
H         12.92900        2.63200        2.13200
C         13.01200        4.15200        0.60000
H         12.06800        3.86500        0.15600
C         13.74400        5.21800        0.03300
C         11.11300        8.16300       -1.27800
O         10.59400        8.91400       -2.10100
N         11.77400        8.63100       -0.21600
H         12.24200        7.96700        0.38600
C         11.92200       10.05700        0.12300
H         10.96100       10.54500       -0.04300
C         12.23900       10.17300        1.62500
H         12.50500       11.20300        1.86500
H         11.31900        9.95800        2.17200
C         13.31000        9.26400        2.16000
C         13.07900        8.14900        2.89100
H         12.09900        7.78900        3.18000
N         14.27600        7.54500        3.21200
H         14.34000        6.66500        3.70700
C         15.35000        8.24300        2.70600
C         16.73600        8.02600        2.75100
H         17.13800        7.18600        3.29600
C         17.59100        8.92300        2.09000
H         18.66300        8.77800        2.12300
C         17.05000       10.02300        1.40300
H         17.70900       10.72500        0.90900
C         15.65700       10.23600        1.37200
H         15.26300       11.10200        0.86200
C         14.76500        9.34700        2.01300
C         12.92100       10.83200       -0.76600
O         13.30100       11.95500       -0.45800
N         13.37100       10.27600       -1.88300
H         13.99900       10.81100       -2.46000
H         12.98400        9.39900       -2.18700
