44
0 1
H          6.19300       11.05500        2.91300
C          5.73300       11.23100        1.94300
H          5.96000       12.24200        1.60800
H          4.65500       11.10300        2.01300
C          6.28900       10.24700        0.94000
O          6.88300       10.64800       -0.05200
N          6.09200        8.95600        1.19800
H          5.57000        8.70100        2.02300
C          6.54600        7.86000        0.33600
H          6.50400        8.18900       -0.70300
C          8.01000        7.51900        0.66600
H          8.62800        8.39800        0.47400
H          8.08400        7.29300        1.73100
C          8.58200        6.35900       -0.09300
C          9.19000        6.43700       -1.29700
H          9.36900        7.35900       -1.84000
N          9.50700        5.16800       -1.74000
H          9.94100        4.98200       -2.63300
C          9.10700        4.20000       -0.84300
C          9.17400        2.79900       -0.85100
H          9.62400        2.28100       -1.68500
C          8.65200        2.08400        0.24000
H          8.70300        1.00300        0.25500
C          8.06700        2.77600        1.31600
H          7.67000        2.22300        2.15700
C          8.00400        4.18300        1.31200
H          7.54900        4.70300        2.14300
C          8.52400        4.93300        0.23300
C          5.63600        6.62900        0.46900
O          4.97500        6.44100        1.49200
N          5.60500        5.77900       -0.55900
H          6.17900        5.99300       -1.36500
C          5.02500        4.42900       -0.54100
H          5.29200        3.93400        0.39400
C          3.49700        4.49100       -0.64300
H          3.20300        5.23100       -1.39000
H          3.10400        3.51600       -0.93600
O          2.96000        4.82800        0.61800
H          3.53100        5.50800        1.02000
C          5.59400        3.59200       -1.69200
O          6.01100        4.12500       -2.71400
N          5.60900        2.27400       -1.55700
H          5.99500        1.72600       -2.30800
H          5.28500        1.84700       -0.70500
