47
0 1
H          6.48700       -3.60800       -7.66300
C          6.55200       -3.18900       -6.65900
H          6.74900       -3.98600       -5.94600
H          5.61800       -2.68800       -6.41400
C          7.68400       -2.19000       -6.62200
O          8.34900       -1.98600       -7.62700
N          7.89800       -1.58200       -5.45300
H          7.29000       -1.84800       -4.69600
C          8.89200       -0.53100       -5.16100
H          8.74700       -0.23800       -4.12100
C         10.31900       -1.10100       -5.23900
H         10.40300       -1.93000       -4.53500
H         10.49300       -1.50200       -6.23800
C         11.41000       -0.12000       -4.93600
C         12.27700        0.39000       -5.84000
H         12.28900        0.13800       -6.89400
N         13.13500        1.27300       -5.21500
H         13.86800        1.77400       -5.69700
C         12.86400        1.37700       -3.86800
C         13.44200        2.12400       -2.83100
H         14.27300        2.78300       -3.03100
C         12.92300        2.00300       -1.53100
H         13.35400        2.57200       -0.71900
C         11.84000        1.13900       -1.28700
H         11.44400        1.04900       -0.28400
C         11.26700        0.39300       -2.33700
H         10.43800       -0.26600       -2.13500
C         11.76300        0.49300       -3.65600
C          8.73200        0.78100       -5.95300
O          8.53400        1.83000       -5.34300
N          8.77200        0.75300       -7.28700
H          8.85800       -0.15500       -7.73800
C          8.69000        1.93800       -8.16400
H          9.24100        2.74600       -7.68300
C          9.37100        1.67800       -9.52100
H          9.34700        2.59900      -10.10500
C         10.82900        1.24000       -9.38000
H         10.88200        0.25400       -8.91700
H         11.28300        1.18700      -10.36900
H         11.37500        1.96200       -8.77400
O          8.69400        0.67300      -10.23400
H          7.80500        1.01300      -10.40100
C          7.24900        2.44600       -8.34200
O          6.74700        2.58300       -9.45300
N          6.53600        2.70200       -7.25500
H          6.96400        2.58000       -6.34600
H          5.58900        3.02400       -7.36000
