51
0 1
H         17.35700        1.93000        8.21900
C         17.09200        0.96700        8.65200
H         17.24400        0.98800        9.72900
H         17.70800        0.18500        8.21100
C         15.64000        0.66900        8.35800
O         15.33400       -0.32700        7.71700
N         14.74700        1.53800        8.82500
H         15.07800        2.35700        9.31400
C         13.30100        1.43600        8.61100
H         13.12600        1.01900        7.61800
C         12.69100        0.47400        9.65000
H         13.16800       -0.50300        9.55400
H         12.90600        0.84900       10.65200
C         11.19300        0.29300        9.49400
C         10.30400        0.99200       10.33500
H         10.68600        1.59300       11.14900
C          8.91900        0.95700       10.08600
H          8.24400        1.52400       10.70900
C          8.41900        0.19900        9.00500
O          7.08900        0.18500        8.73600
H          6.60200        0.77900        9.30900
C          9.30700       -0.52400        8.18100
H          8.91100       -1.10500        7.36100
C         10.69300       -0.47200        8.42200
H         11.37600       -1.00800        7.77400
C         12.62900        2.82200        8.65300
O         13.20200        3.78200        9.17100
N         11.40200        2.91800        8.13300
H         11.00100        2.07400        7.75100
C         10.53100        4.10100        8.13900
H         11.12300        4.95300        7.80500
C          9.40000        3.88100        7.11700
H          8.70000        3.14600        7.52000
H          8.85400        4.81600        6.98900
C          9.86800        3.40100        5.75400
C          9.63400        2.07000        5.35700
H          9.09300        1.39500        6.00700
C         10.09700        1.61500        4.10700
H          9.92100        0.59800        3.79100
C         10.79400        2.49100        3.25100
O         11.23700        2.04500        2.04700
H         11.69100        2.72800        1.55400
C         11.02700        3.82700        3.64700
H         11.56000        4.50000        2.99300
C         10.56400        4.27800        4.89800
H         10.74300        5.30000        5.20400
C          9.98500        4.45300        9.54400
O          8.78300        4.48300        9.78600
N         10.85400        4.69000       10.51500
H         10.50500        4.92000       11.43000
H         11.84500        4.63500       10.31700
