47
0 1
H         12.05200        6.98600       -4.45800
C         12.42300        6.78800       -3.45400
H         11.58800        6.75500       -2.75600
H         13.12000        7.56800       -3.15200
C         13.13000        5.45400       -3.43300
O         12.73600        4.55700       -2.69700
N         14.17500        5.31600       -4.24600
H         14.46500        6.10800       -4.79400
C         15.02700        4.12300       -4.23900
H         14.37600        3.24700       -4.23300
C         15.87200        4.06600       -5.52000
H         15.20900        4.02700       -6.38600
H         16.47100        4.97500       -5.59500
C         16.79200        2.86100       -5.55000
C         18.13700        2.99400       -5.15200
H         18.53600        3.96900       -4.90700
C         18.95000        1.85300       -5.01700
H         19.96900        1.95100       -4.67500
C         18.42000        0.57500       -5.29400
O         19.18300       -0.53300       -5.11600
H         19.94500       -0.34900       -4.56300
C         17.08400        0.44600       -5.72500
H         16.69300       -0.53900       -5.93800
C         16.26900        1.58700       -5.84900
H         15.23600        1.48100       -6.15300
C         15.90500        4.04800       -2.97400
O         16.34400        5.07000       -2.44600
N         16.20400        2.82800       -2.51600
H         15.86400        2.03700       -3.04000
C         17.06400        2.54400       -1.35800
H         16.81500        3.24600       -0.56100
C         16.78000        1.12500       -0.83400
H         17.03600        0.40300       -1.61000
H         17.41900        0.93400        0.03000
C         15.32100        0.88300       -0.41400
H         14.66000        1.03400       -1.26800
H         15.24100       -0.16600       -0.12800
S         14.71700        1.86800        0.98800
C         13.92800        3.26700        0.14000
H         13.18700        2.89900       -0.57100
H         13.43000        3.90000        0.87400
H         14.67000        3.86100       -0.38900
C         18.55800        2.75600       -1.67600
O         19.34400        1.82000       -1.77800
N         18.97300        3.99900       -1.87200
H         19.94500        4.16000       -2.07400
H         18.29800        4.75300       -1.84700
