47
0 1
H          2.15900        5.88100       -0.12200
C          2.80900        6.43600        0.55300
H          3.15600        5.78600        1.35400
H          2.26200        7.27800        0.97600
C          3.99600        6.96000       -0.22000
O          4.20000        8.16700       -0.28800
N          4.77800        6.04600       -0.79400
H          4.50600        5.08000       -0.72300
C          5.88000        6.37500       -1.70400
H          6.34900        7.29400       -1.35100
C          6.94800        5.26500       -1.66200
H          7.36900        5.20800       -0.65800
H          6.47700        4.30700       -1.88700
C          8.06600        5.51300       -2.65700
C          8.00600        4.91700       -3.93300
H          7.23800        4.18900       -4.15800
C          8.88000        5.34200       -4.95000
H          8.79600        4.93300       -5.94500
C          9.82900        6.35200       -4.68600
O         10.58200        6.85200       -5.69700
H         10.09600        6.81400       -6.52600
C          9.93100        6.90300       -3.39200
H         10.66300        7.67400       -3.20500
C          9.04500        6.48700       -2.37800
H          9.08900        6.95100       -1.40200
C          5.39200        6.64400       -3.14300
O          4.37800        6.10100       -3.58000
N          6.14500        7.46000       -3.88600
H          6.97800        7.83300       -3.45600
C          5.91700        7.80900       -5.29800
H          5.60400        6.91800       -5.84400
C          4.79300        8.86400       -5.40600
H          4.89900        9.42500       -6.33500
H          3.83900        8.33700       -5.44700
C          4.73900        9.82600       -4.24100
N          5.64900       10.85500       -3.98200
C          5.35900       11.29700       -2.74800
H          5.90300       12.07800       -2.23300
N          4.34400       10.59200       -2.22100
H          4.02600       10.63300       -1.26100
C          3.93700        9.66500       -3.15100
H          3.21000        8.87700       -3.00700
C          7.22000        8.28700       -5.95500
O          7.72900        7.65700       -6.87600
N          7.82300        9.35800       -5.45700
H          7.35100        9.90600       -4.75000
H          8.69000        9.66000       -5.86800
