41
0 1
H         14.78800        6.52700       -4.15200
C         14.10200        6.84400       -4.93500
H         13.71200        5.97000       -5.45500
H         14.61700        7.49100       -5.64200
C         12.94900        7.59800       -4.31500
O         11.80300        7.18800       -4.44700
N         13.25300        8.70500       -3.64200
H         14.21800        8.99900       -3.60300
C         12.26900        9.57500       -2.99100
H         11.35400        9.57100       -3.58600
C         11.93500        9.02000       -1.59400
H         11.52400        8.01400       -1.70000
H         12.85500        8.94200       -1.01400
C         10.93600        9.86900       -0.83300
C         11.37100       10.71500        0.20700
H         12.40700       10.70900        0.51700
C         10.46300       11.59500        0.82400
H         10.78800       12.26500        1.60700
C          9.11700       11.62900        0.40600
O          8.25500       12.50500        0.98300
H          7.41500       12.53500        0.52400
C          8.67700       10.76900       -0.62400
H          7.64700       10.79500       -0.94600
C          9.58800        9.89100       -1.24200
H          9.25500        9.24100       -2.04100
C         12.76700       11.03000       -2.92100
O         13.97200       11.28300       -2.97300
N         11.84700       11.98800       -2.77700
H         10.88200       11.70400       -2.66700
C         12.11300       13.42100       -2.58900
H         12.87800       13.72800       -3.30300
C         10.83100       14.20600       -2.90500
H         11.01300       15.27400       -2.78000
H         10.54000       14.01900       -3.93900
O          9.78100       13.79900       -2.04900
H         10.03600       14.05600       -1.14900
C         12.64500       13.74500       -1.17900
O         12.03100       14.48300       -0.41400
N         13.77800       13.17800       -0.79100
H         14.13000       13.38000        0.13000
H         14.25700       12.54800       -1.42200
