51
0 1
H         -1.14900       11.43500       -6.05100
C         -1.90400       10.75500       -6.44100
H         -1.61400       10.40600       -7.43000
H         -2.86200       11.27100       -6.50600
C         -2.04700        9.57000       -5.51600
O         -3.12300        9.32300       -4.99000
N         -0.94700        8.85600       -5.28500
H         -0.08700        9.15200       -5.71900
C         -0.90100        7.62700       -4.47300
H         -1.64400        6.93300       -4.86900
C          0.48300        6.97800       -4.64200
H          0.52700        6.06900       -4.03900
H          0.59900        6.67400       -5.68300
C          1.64400        7.87900       -4.26000
C          2.33900        8.59800       -5.25400
H          2.08400        8.47300       -6.29700
C          3.37300        9.48200       -4.89000
H          3.90800       10.04700       -5.63900
C          3.72000        9.64400       -3.53300
O          4.68100       10.53800       -3.18600
H          4.56000       10.86600       -2.28600
C          3.04600        8.89600       -2.54300
H          3.32200        9.00300       -1.50600
C          2.00800        8.01900       -2.90700
H          1.48300        7.45900       -2.14300
C         -1.25100        7.81900       -2.98100
O         -1.40300        6.83600       -2.26300
N         -1.40500        9.06100       -2.51000
H         -1.24500        9.82200       -3.14600
C         -1.94800        9.38200       -1.18300
H         -1.48600        8.72100       -0.44800
C         -1.58100       10.83200       -0.82600
H         -2.04600       11.50400       -1.54900
H         -2.00500       11.06800        0.15200
C         -0.09000       11.10700       -0.76900
C          0.65300       10.68200        0.35000
H          0.15500       10.16500        1.15900
C          2.04000       10.91900        0.41300
H          2.60700       10.57800        1.26500
C          2.68500       11.58300       -0.65200
O          4.03300       11.76500       -0.62600
H          4.37300       11.74300        0.27200
C          1.94200       12.01500       -1.77000
H          2.44700       12.51700       -2.58200
C          0.55500       11.78000       -1.82700
H         -0.01300       12.11500       -2.68300
C         -3.47300        9.17600       -1.07100
O         -4.02200        9.22400        0.02300
N         -4.19400        8.96700       -2.16700
H         -5.18400        8.82600       -2.06600
H         -3.75300        8.95000       -3.07700
