47
0 1
H          8.14000        3.26300        0.10500
C          7.18500        3.54200       -0.33900
H          6.44100        2.78300       -0.10800
H          7.29900        3.64000       -1.41700
C          6.74500        4.86500        0.24300
O          7.43700        5.43200        1.07700
N          5.59200        5.35900       -0.20500
H          5.06200        4.81000       -0.85900
C          4.96400        6.55900        0.35800
H          5.74000        7.30800        0.52500
C          3.95900        7.12900       -0.65600
H          4.44100        7.17900       -1.63400
H          3.11500        6.44300       -0.74500
C          3.44200        8.51400       -0.31500
C          2.27200        8.67100        0.45600
H          1.73300        7.80200        0.80400
C          1.80900        9.95900        0.78400
H          0.92600       10.08700        1.39100
C          2.50200       11.09700        0.32200
O          2.05800       12.34100        0.64200
H          2.38200       13.00100        0.02600
C          3.66600       10.94300       -0.46200
H          4.20500       11.81000       -0.81100
C          4.13800        9.65200       -0.77000
H          5.03800        9.53300       -1.35700
C          4.29800        6.25500        1.71200
O          3.73600        5.17600        1.90300
N          4.30700        7.22000        2.63500
H          4.75300        8.09900        2.39500
C          3.75000        7.14200        3.99800
H          4.05100        6.18800        4.43100
C          4.39300        8.26200        4.83700
H          3.95400        8.28200        5.83500
H          5.45500        8.04200        4.95200
C          4.27000        9.62600        4.20300
N          5.12600       10.12600        3.21900
C          4.60500       11.30300        2.84700
H          5.02200       11.93900        2.07800
N          3.46800       11.55100        3.52000
H          2.84500       12.32700        3.34600
C          3.23900       10.50100        4.38000
H          2.38300       10.34900        5.02400
C          2.20400        7.16300        4.05800
O          1.59500        7.85900        4.86300
N          1.52400        6.40900        3.20700
H          0.52000        6.41200        3.25700
H          2.03100        5.80000        2.57900
