44
0 1
H          9.65900        5.73100       -3.18900
C          8.58700        5.56000       -3.26500
H          8.40700        4.52300       -3.54900
H          8.15600        6.22200       -4.01300
C          7.94300        5.81900       -1.92500
O          7.33800        4.92600       -1.34800
N          8.03900        7.05800       -1.44500
H          8.51800        7.74700       -2.00200
C          7.54500        7.48300       -0.12300
H          8.04000        6.88000        0.64100
C          7.93900        8.95400        0.09800
H          7.55600        9.28100        1.06600
H          9.02700        9.01700        0.14900
C          7.43800        9.90800       -0.97500
C          8.30300       10.32900       -2.00600
H          9.33700       10.01100       -2.01000
C          7.83000       11.18100       -3.02400
H          8.49500       11.50800       -3.80900
C          6.48500       11.61200       -3.01300
O          6.02000       12.43000       -3.99200
H          6.71000       12.71600       -4.59000
C          5.62200       11.19400       -1.98000
H          4.59500       11.53200       -1.98000
C          6.10000       10.35200       -0.95800
H          5.43300       10.04800       -0.16200
C          6.02900        7.29600        0.08900
O          5.57000        7.29100        1.22600
N          5.24700        7.14200       -0.98500
H          5.68800        7.16400       -1.88900
C          3.80600        6.87900       -0.92400
H          3.39700        7.45800       -0.09200
C          3.17300        7.39600       -2.23500
H          3.77700        8.20800       -2.64100
H          3.14000        6.59300       -2.97100
C          1.76900        7.95500       -2.05900
O          1.47700        9.06700       -2.45800
N          0.86200        7.23700       -1.44400
H         -0.04600        7.64900       -1.33800
H          1.10100        6.31900       -1.08100
C          3.47100        5.39200       -0.64100
O          2.30300        5.03200       -0.52900
N          4.44800        4.49700       -0.55100
H          4.20500        3.54000       -0.36000
H          5.41400        4.77500       -0.66100
