41
0 1
H         11.04900        0.34100        4.76700
C         12.02900        0.41700        4.30100
H         12.62300       -0.46100        4.55100
H         12.54100        1.31300        4.64900
C         11.86900        0.48800        2.80100
O         12.38100       -0.36400        2.08100
N         11.15600        1.50500        2.31800
H         10.80200        2.20000        2.95500
C         11.02600        1.73500        0.87900
H         10.71000        0.79700        0.42000
C          9.94900        2.78200        0.57300
H          9.00000        2.45500        1.00000
H         10.22100        3.72800        1.04400
C          9.77400        2.99900       -0.92000
C          8.91900        2.15500       -1.65700
H          8.34900        1.38800       -1.15100
C          8.81000        2.30400       -3.05400
H          8.15600        1.65600       -3.61700
C          9.56300        3.29900       -3.71600
O          9.48000        3.43900       -5.06400
H          8.77800        2.90900       -5.44400
C         10.42200        4.13800       -2.97800
H         10.99600        4.89300       -3.49600
C         10.52500        3.99000       -1.58200
H         11.19400        4.63000       -1.02000
C         12.37500        2.13200        0.26000
O         13.03700        3.05800        0.72400
N         12.75400        1.44000       -0.81300
H         12.17600        0.66400       -1.09400
C         14.07400        1.52600       -1.44200
H         14.52100        2.49100       -1.19900
C         14.97100        0.43100       -0.83400
H         15.88000        0.33400       -1.43200
H         15.25600        0.72300        0.17800
S         14.12200       -1.18000       -0.75700
H         13.46000       -0.95700        0.39400
C         14.01400        1.48100       -2.98500
O         15.02100        1.27900       -3.65200
N         12.84700        1.68100       -3.59000
H         12.02800        1.90600       -3.05000
H         12.82600        1.66000       -4.59700
