47
0 1
H          3.58200       17.11200       -4.69800
C          4.63100       17.18700       -4.41900
H          4.72200       17.61400       -3.42200
H          5.15600       17.81700       -5.13600
C          5.25200       15.81000       -4.43100
O          6.19300       15.56700       -5.17500
N          4.72000       14.91100       -3.60600
H          3.93400       15.18200       -3.03600
C          5.17200       13.52100       -3.48900
H          5.49500       13.17000       -4.47100
C          6.37500       13.45500       -2.53200
H          7.15400       14.12600       -2.89800
H          6.06700       13.82000       -1.55100
C          6.97500       12.07100       -2.37700
C          7.92300       11.60900       -3.31000
H          8.23900       12.25100       -4.12100
C          8.45800       10.31200       -3.18700
H          9.18900        9.95100       -3.89400
C          8.02600        9.46500       -2.14400
O          8.51600        8.20000       -2.05100
H          8.23900        7.78200       -1.23500
C          7.07800        9.93000       -1.20700
H          6.73500        9.28200       -0.41500
C          6.56600       11.23600       -1.31800
H          5.84300       11.59400       -0.59900
C          4.02600       12.61400       -3.01200
O          3.15900       13.05200       -2.25200
N          4.02700       11.34600       -3.42800
H          4.77900       11.04700       -4.04100
C          3.06500       10.30100       -3.04000
H          2.06400       10.73200       -3.05600
C          3.10500        9.18100       -4.09800
H          2.51300        8.32900       -3.76000
H          2.64300        9.55700       -5.01100
C          4.49900        8.72100       -4.44900
N          5.34800        9.37300       -5.34500
C          6.51000        8.70700       -5.29900
H          7.39300        8.97700       -5.86300
N          6.43800        7.69500       -4.41800
H          7.21600        7.11400       -4.13500
C          5.17600        7.69100       -3.86700
H          4.79900        7.04900       -3.08200
C          3.28400        9.78800       -1.60000
O          3.52500        8.61200       -1.34900
N          3.21100       10.67000       -0.61400
H          3.02700       11.64100       -0.83500
H          3.33600       10.35000        0.33100
