41
0 1
H          9.89800        5.01100        3.40700
C          8.94100        5.46400        3.65900
H          8.84800        5.55800        4.74000
H          8.13200        4.84300        3.27700
C          8.85000        6.83300        3.02900
O          7.97500        7.07900        2.20900
N          9.76700        7.72400        3.40300
H         10.43400        7.43600        4.10100
C          9.80500        9.13900        2.99400
H          8.78600        9.52200        3.06400
C         10.66200        9.92700        4.00300
H         11.71100        9.66700        3.85000
H         10.55600       10.99300        3.79800
C         10.30100        9.68100        5.45800
C         11.17700        8.95900        6.29300
H         12.12500        8.60400        5.91200
C         10.82600        8.70600        7.63300
H         11.49100        8.15900        8.28500
C          9.59800        9.17700        8.14300
O          9.26700        8.92800        9.43600
H          8.43500        9.33500        9.68100
C          8.72100        9.90300        7.30800
H          7.78100       10.26500        7.69500
C          9.07500       10.15300        5.96800
H          8.40300       10.70800        5.32800
C         10.25100        9.36900        1.53000
O         11.10500       10.20800        1.25300
N          9.68900        8.61200        0.58300
H          8.96400        7.97200        0.89200
C         10.03600        8.60400       -0.84900
H         11.12400        8.62900       -0.92500
C          9.57100        7.27600       -1.46400
H          9.98800        6.44600       -0.89300
H          8.48100        7.21700       -1.42800
O         10.00200        7.17100       -2.80300
H          9.58200        7.90000       -3.28600
C          9.51500        9.83000       -1.63200
O          8.94100        9.70700       -2.71100
N          9.66900       11.03500       -1.10300
H          9.32600       11.83300       -1.61000
H         10.17400       11.13100       -0.23200
