47
0 1
H          8.33100        9.07600        6.45600
C          8.24800        9.04800        5.37100
H          9.08000        9.59900        4.93100
H          7.30800        9.49800        5.05700
C          8.30800        7.61500        4.90100
O          9.19600        7.25200        4.14200
N          7.33500        6.80700        5.32500
H          6.62700        7.19600        5.92400
C          7.27300        5.36000        5.05000
H          8.15400        4.88700        5.48500
C          6.02100        4.78400        5.73700
H          6.05500        3.69600        5.65900
H          6.05200        5.02900        6.80000
C          4.70800        5.27000        5.14400
C          4.17700        4.63700        4.00100
H          4.68400        3.78100        3.57100
C          3.00800        5.13000        3.39300
H          2.62100        4.65300        2.50500
C          2.35100        6.25200        3.94200
O          1.23000        6.74200        3.35500
H          0.98900        6.24200        2.57400
C          2.86500        6.87100        5.10000
H          2.34500        7.72100        5.51500
C          4.04100        6.38100        5.70100
H          4.42600        6.85700        6.59200
C          7.25800        4.99300        3.55300
O          7.58000        3.86300        3.19900
N          6.86800        5.92700        2.67900
H          6.61100        6.82600        3.04900
C          6.78700        5.73100        1.22700
H          6.41000        4.72200        1.05000
C          5.76700        6.73700        0.65800
H          4.97200        6.90800        1.38600
H          6.26900        7.68800        0.47700
C          5.11000        6.25800       -0.64100
H          4.58800        7.10200       -1.09200
H          5.87700        5.92900       -1.34100
S          3.90700        4.91800       -0.40500
C          3.56100        4.52400       -2.13900
H          4.48200        4.21200       -2.63300
H          2.83500        3.71200       -2.18900
H          3.15700        5.40200       -2.64200
C          8.15600        5.82700        0.51500
O          8.25000        5.63800       -0.69100
N          9.23600        6.14900        1.21800
H          9.16900        6.31700        2.21300
H         10.12000        6.19600        0.74000
