44
0 1
H         13.69200       17.35200        5.28300
C         13.53600       16.27800        5.36200
H         14.48800       15.76300        5.23700
H         12.84000       15.94200        4.59600
C         12.98000       15.94900        6.72600
O         13.58000       15.18900        7.47200
N         11.81300       16.50400        7.04800
H         11.36400       17.10000        6.37200
C         11.12200       16.27500        8.32800
H         11.84100       16.41400        9.13700
C         10.01200       17.32800        8.48500
H          9.57200       17.22500        9.47800
H         10.45900       18.32200        8.43700
C          8.90200       17.22900        7.45100
C          8.95300       18.00900        6.27700
H          9.76300       18.70900        6.12600
C          7.94300       17.88800        5.30300
H          7.98200       18.48500        4.40500
C          6.87200       16.98900        5.50700
O          5.89400       16.86200        4.57300
H          6.02600       17.44600        3.82600
C          6.81500       16.22100        6.68700
H          5.98900       15.54200        6.83500
C          7.82800       16.34200        7.65700
H          7.78000       15.74900        8.56200
C         10.54600       14.85200        8.48200
O         10.10700       14.47400        9.56600
N         10.51900       14.06000        7.40700
H         10.92600       14.41300        6.55400
C          9.96100       12.69800        7.34100
H          9.05400       12.66800        7.94400
C          9.57100       12.36000        5.89100
H          9.17400       11.34500        5.85300
C          8.51200       13.30900        5.32700
H          8.23100       12.97800        4.32700
H          7.62900       13.29600        5.96500
H          8.90000       14.32500        5.26600
O         10.70600       12.44400        5.06000
H         11.28300       11.71600        5.32600
C         10.91700       11.64500        7.92700
O         11.22500       10.64100        7.29300
N         11.44200       11.86900        9.12300
H         12.09600       11.20200        9.49800
H         11.18800       12.70800        9.62600
