51
0 1
H         -0.13900        5.54700        3.40000
C          0.54000        6.04800        2.71200
H          0.29400        7.10700        2.66100
H          0.45900        5.59900        1.72400
C          1.95500        5.88800        3.21800
O          2.17200        5.26700        4.25000
N          2.91500        6.45300        2.49000
H          2.65900        6.98200        1.67000
C          4.34000        6.42800        2.83500
H          4.43100        6.46400        3.92200
C          4.96300        5.11200        2.34000
H          4.24600        4.30100        2.47700
H          5.16600        5.18600        1.27100
C          6.22700        4.72400        3.08100
C          7.49400        4.93500        2.50400
H          7.57700        5.37600        1.52000
C          8.65800        4.56800        3.20600
H          9.62700        4.73800        2.76200
C          8.55400        3.98000        4.48500
O          9.67200        3.62600        5.17000
H         10.46300        3.97100        4.74600
C          7.28500        3.77200        5.06300
H          7.21600        3.32000        6.04100
C          6.12300        4.14700        4.36200
H          5.14700        3.98200        4.80200
C          5.06200        7.65800        2.25900
O          4.52100        8.34000        1.38700
N          6.26700        7.97000        2.74400
H          6.71600        7.32700        3.38100
C          7.05400        9.10100        2.24000
H          6.36600        9.92700        2.05200
C          8.04600        9.58600        3.31000
H          8.62600       10.41300        2.89800
H          7.47000        9.99300        4.14200
C          9.01000        8.54500        3.85300
C         10.17600        8.21300        3.13500
H         10.37300        8.67300        2.17700
C         11.08400        7.27200        3.65600
H         11.97600        7.00800        3.10800
C         10.83200        6.66500        4.90200
O         11.70200        5.74300        5.39200
H         11.50700        5.52600        6.30600
C          9.66400        6.99400        5.62300
H          9.45800        6.51500        6.56900
C          8.75500        7.93200        5.09700
H          7.86200        8.18300        5.65200
C          7.74300        8.78700        0.89900
O          8.16000        7.66700        0.62800
N          7.91100        9.78500        0.04200
H          8.35400        9.58000       -0.83900
H          7.55700       10.70300        0.25300
