47
0 1
H          4.83700       15.23000        1.29000
C          5.46800       14.70100        2.00200
H          6.35800       14.33000        1.49300
H          4.92300       13.86300        2.43200
C          5.89100       15.64900        3.09800
O          7.07200       15.92900        3.25200
N          4.92600       16.13100        3.88000
H          3.98300       15.82100        3.71600
C          5.14300       17.13400        4.93900
H          5.64200       17.99600        4.49200
C          3.77700       17.59700        5.47000
H          3.93700       18.41500        6.17400
H          3.19600       18.00300        4.64000
C          2.96500       16.51400        6.16300
C          1.98700       15.79300        5.44900
H          1.78900       16.02300        4.41200
C          1.24900       14.78000        6.09200
H          0.49400       14.22300        5.55800
C          1.48100       14.49200        7.45300
O          0.77100       13.50800        8.06200
H          0.90500       13.50000        9.01100
C          2.45600       15.21700        8.17100
H          2.63800       15.00100        9.21200
C          3.19400       16.22700        7.52400
H          3.94100       16.78600        8.07500
C          6.04500       16.66100        6.09800
O          6.48400       17.47700        6.90300
N          6.31300       15.35600        6.19800
H          5.90900       14.74700        5.50200
C          7.24800       14.74800        7.15100
H          7.27600       15.37100        8.04600
C          6.71900       13.36300        7.57300
H          7.35000       12.99500        8.38300
H          5.71300       13.47200        7.97600
C          6.71500       12.29700        6.46200
H          7.71900       12.22700        6.04300
H          6.49600       11.33500        6.92600
S          5.54000       12.52200        5.08800
C          3.95700       12.36600        5.95800
H          3.85300       13.17300        6.68300
H          3.13900       12.42900        5.24000
H          3.91100       11.40600        6.47100
C          8.70000       14.67500        6.63500
O          9.57300       14.16600        7.32700
N          8.99700       15.14100        5.42800
H          9.95100       15.08400        5.11500
H          8.27900       15.54200        4.83800
