41
0 1
H         -0.83400        8.03000       -2.44100
C         -1.33400        8.55500       -3.25500
H         -1.45500        9.60400       -2.99100
H         -2.30500        8.10100       -3.43900
C         -0.48400        8.44900       -4.49900
O          0.58000        7.84500       -4.47100
N         -0.95600        9.03300       -5.59800
H         -1.82000        9.54400       -5.53900
C         -0.19300        9.10100       -6.84700
H          0.22000        8.11100       -7.04800
C         -1.12600        9.46300       -8.01500
H         -1.77200        8.61100       -8.23000
H         -1.76300       10.29200       -7.70500
C         -0.39800        9.86300       -9.28800
C         -0.54700       11.16700       -9.80100
H         -1.21300       11.86800       -9.31800
C          0.18700       11.56900      -10.93300
H          0.08400       12.56700      -11.33200
C          1.08900       10.67500      -11.54300
O          1.83000       11.08800      -12.60200
H          2.61400       10.54900      -12.71900
C          1.23100        9.36400      -11.03800
H          1.91600        8.67600      -11.51000
C          0.47800        8.95600       -9.92000
H          0.59000        7.95100       -9.53600
C          0.98800       10.08300       -6.74600
O          0.82100       11.23700       -6.34900
N          2.17300        9.64000       -7.17500
H          2.24300        8.68000       -7.47800
C          3.38600       10.45000       -7.32900
H          3.49800       11.08300       -6.44800
C          4.59700        9.50800       -7.39400
H          5.51400       10.09500       -7.47200
H          4.63900        8.90800       -6.48400
O          4.48400        8.65300       -8.51500
H          4.52400        9.23000       -9.29300
C          3.30800       11.37200       -8.56200
O          4.02700       11.19800       -9.54400
N          2.40900       12.34400       -8.55000
H          2.31100       12.92100       -9.36800
H          1.77800       12.42200       -7.76300
