41
0 1
H          5.70200        6.98700       -5.45000
C          4.96200        7.48200       -4.82100
H          4.81700        6.90700       -3.90900
H          4.02300        7.56200       -5.36500
C          5.46000        8.86500       -4.47600
O          6.54500        9.25000       -4.88900
N          4.68100        9.60100       -3.68400
H          3.80700        9.19900       -3.38500
C          4.93100       11.02000       -3.33100
H          5.04200       11.57500       -4.26300
C          3.72700       11.62600       -2.57700
H          3.93300       12.68000       -2.39000
C          2.44700       11.55900       -3.42100
H          1.64800       12.09900       -2.91300
H          2.62200       12.03200       -4.38800
H          2.13300       10.52700       -3.57500
C          3.46500       10.94700       -1.22500
H          3.22800        9.89200       -1.35800
H          4.34000       11.04400       -0.58100
H          2.62600       11.43800       -0.73000
C          6.22600       11.28500       -2.54300
O          6.58300       12.43900       -2.33500
N          6.93700       10.23900       -2.11200
H          6.60000        9.32300       -2.36100
C          8.27000       10.32700       -1.48600
H          8.29900       11.22200       -0.86400
C          8.53300        9.11500       -0.56800
H          9.51700        9.23400       -0.11400
C          7.51000        9.05500        0.57400
H          7.51600        9.99900        1.11900
H          6.50800        8.86900        0.18700
H          7.78000        8.25500        1.26400
C          8.51600        7.77400       -1.31700
H          7.53700        7.58600       -1.75600
H          9.27100        7.77700       -2.10400
H          8.75400        6.96800       -0.62300
C          9.41400       10.48600       -2.50300
O         10.55700       10.69200       -2.11700
N          9.15800       10.38300       -3.80200
H          9.91900       10.50100       -4.44800
H          8.22100       10.18600       -4.12500
