36
0 1
H          9.11900        9.15000        0.78400
C          8.99900        8.54100       -0.11000
H          9.88500        7.92800       -0.26400
H          8.84800        9.18700       -0.97400
C          7.79200        7.64800        0.05400
O          6.84300        7.74300       -0.71700
N          7.81800        6.78200        1.06600
H          8.61300        6.79400        1.68500
C          6.69300        5.88700        1.39000
H          6.45800        5.30000        0.50300
C          7.06000        4.90700        2.52400
H          7.35800        5.47400        3.40800
C          5.88300        3.99800        2.90200
H          6.19600        3.29000        3.67000
H          5.06300        4.58900        3.31100
H          5.53400        3.44600        2.02900
C          8.23200        4.00500        2.11100
H          7.97100        3.43500        1.21800
H          9.12000        4.60200        1.90900
H          8.46700        3.31200        2.92000
C          5.45900        6.71800        1.75600
O          5.48700        7.47900        2.71800
N          4.38200        6.57600        0.97700
H          4.45800        5.95300        0.19000
C          3.15900        7.39500        1.07100
H          2.52200        7.08900        0.24200
C          2.38100        7.06500        2.35400
H          2.29400        5.98300        2.46000
H          2.90900        7.46500        3.22100
O          1.08700        7.62300        2.29100
H          1.20300        8.57800        2.15800
C          3.37400        8.91400        0.87900
O          2.53400        9.72200        1.26800
N          4.47300        9.34500        0.27200
H          5.17500        8.69100       -0.04900
H          4.60000       10.33700        0.16500
