46
0 1
H          6.08100        5.86700       -3.99100
C          5.00700        5.69800       -4.05000
H          4.74300        5.40200       -5.06500
H          4.47200        6.60700       -3.78300
C          4.62400        4.58700       -3.10200
O          4.10100        3.56600       -3.52800
N          4.85400        4.80300       -1.80600
H          5.27900        5.67800       -1.54500
C          4.65500        3.79800       -0.73400
H          5.26100        2.92500       -0.97800
C          5.14400        4.33700        0.62800
H          5.01500        3.55200        1.37300
C          6.63900        4.68200        0.58600
H          6.82800        5.52200       -0.08100
H          6.97800        4.94400        1.58900
H          7.20500        3.81400        0.24600
C          4.36400        5.57300        1.10400
H          3.30700        5.33000        1.21400
H          4.74000        5.88800        2.07700
H          4.47100        6.39700        0.40000
C          3.21700        3.27800       -0.59000
O          2.99900        2.26800        0.07000
N          2.23800        3.94600       -1.20300
H          2.49300        4.76700       -1.72500
C          0.82700        3.54400       -1.21500
H          0.57700        3.14700       -0.23000
C         -0.03900        4.79100       -1.46300
H          0.02400        5.05000       -2.52100
H         -1.08000        4.54300       -1.24900
C          0.35100        6.00400       -0.63300
C          0.31200        5.93600        0.77400
H         -0.02300        5.03100        1.26300
C          0.71900        7.04100        1.54600
H          0.69500        6.99600        2.62500
C          1.16000        8.22000        0.91400
O          1.54900        9.28300        1.66500
H          1.68700       10.06900        1.13600
C          1.19500        8.29300       -0.49600
H          1.52700        9.19700       -0.98300
C          0.79300        7.18400       -1.26600
H          0.81600        7.24100       -2.34600
C          0.50300        2.43300       -2.23500
O         -0.62100        1.94900       -2.28500
N          1.44400        2.02400       -3.07900
H          1.21500        1.29300       -3.73100
H          2.36700        2.43600       -3.05600
