46
0 1
H         -0.98700        6.15400       -1.70000
C         -1.39200        5.33500       -1.10900
H         -1.45000        4.43300       -1.71500
H         -2.38800        5.60400       -0.75900
C         -0.50500        5.07900        0.08500
O         -0.97600        5.07200        1.21400
N          0.79300        4.89000       -0.16000
H          1.09500        4.91300       -1.12100
C          1.79800        4.52500        0.86800
H          1.43600        3.63600        1.38500
C          3.15200        4.16200        0.22000
H          3.84000        3.86100        1.01000
C          3.01000        2.97100       -0.73600
H          2.55600        2.13100       -0.20900
H          2.39500        3.23100       -1.59700
H          3.99600        2.66600       -1.08600
C          3.78800        5.33500       -0.54000
H          4.75100        5.02400       -0.94600
H          3.14700        5.66000       -1.36000
H          3.96100        6.17100        0.13800
C          2.01400        5.58000        1.96700
O          2.66700        5.29700        2.96500
N          1.46200        6.78300        1.80200
H          0.90800        6.92600        0.97200
C          1.40300        7.84000        2.81900
H          2.35000        7.86700        3.36000
C          1.21800        9.18600        2.09600
H          1.01900        9.96900        2.82900
H          2.16000        9.44100        1.60800
C          0.11300        9.18400        1.05100
C         -1.23600        9.26500        1.44800
H         -1.48400        9.37400        2.49600
C         -2.26200        9.19300        0.48600
H         -3.29400        9.24400        0.79700
C         -1.93600        9.04600       -0.88000
O         -2.91700        8.96100       -1.81500
H         -3.78500        9.10900       -1.43700
C         -0.58500        8.97900       -1.27800
H         -0.35100        8.88100       -2.32800
C          0.43800        9.04500       -0.31400
H          1.47300        8.99300       -0.62200
C          0.29900        7.61800        3.87600
O          0.19400        8.38000        4.83000
N         -0.56100        6.61500        3.73700
H         -1.26300        6.48600        4.44500
H         -0.51400        6.00600        2.93000
