49
0 1
H          2.39500       13.37400       -8.74100
C          2.74900       14.36900       -8.48200
H          2.18300       15.12300       -9.02400
H          3.80600       14.44800       -8.73800
C          2.59100       14.59400       -6.99800
O          3.54300       14.96000       -6.32400
N          1.38600       14.35100       -6.47900
H          0.65600       14.06100       -7.10900
C          1.03500       14.55200       -5.05300
H          1.26400       15.58800       -4.80100
C         -0.48500       14.34900       -4.86700
H         -0.99000       14.94900       -5.62500
C         -0.92400       12.89000       -5.06100
H         -2.01100       12.82800       -5.00900
H         -0.60200       12.52100       -6.03400
H         -0.50200       12.25800       -4.27800
C         -0.98900       14.83400       -3.50400
H         -2.07800       14.79400       -3.47800
H         -0.59500       14.20900       -2.70200
H         -0.67300       15.86400       -3.33900
C          1.85700       13.68400       -4.08200
O          1.99600       14.01800       -2.91100
N          2.43300       12.58500       -4.57400
H          2.29000       12.38600       -5.55100
C          3.37200       11.71100       -3.86100
H          3.04400       11.61600       -2.82500
C          3.31800       10.31200       -4.50800
H          4.24700        9.77600       -4.31400
H          2.52700        9.75400       -4.00400
C          3.03300       10.26800       -5.98600
C          1.89600        9.78900       -6.54100
H          1.07200        9.36000       -5.98100
N          1.95200        9.92200       -7.91300
H          1.22800        9.59200       -8.53600
C          3.13200       10.50700       -8.31700
C          3.64000       10.85700       -9.57700
H          3.06700       10.66400      -10.47200
C          4.90700       11.45800       -9.65900
H          5.31900       11.73300      -10.62000
C          5.64700       11.69100       -8.48600
H          6.62600       12.14600       -8.55100
C          5.12900       11.32800       -7.22700
H          5.72000       11.49800       -6.33900
C          3.85500       10.73200       -7.10600
C          4.81200       12.26200       -3.78200
O          5.68400       11.63000       -3.20000
N          5.11400       13.42000       -4.35700
H          6.05600       13.76300       -4.27500
H          4.41100       13.94700       -4.85900
