36
0 1
H         11.26100        8.56100       -6.49400
C         10.54600        8.99500       -7.19100
H         10.37700        8.31500       -8.02300
H         10.93400        9.94100       -7.56700
C          9.24100        9.25000       -6.47700
O          8.79200       10.38700       -6.39400
N          8.62800        8.18900       -5.95000
H          9.07100        7.29000       -6.04600
C          7.35200        8.25500       -5.21000
H          6.69800        8.95300       -5.73400
C          6.62900        6.88700       -5.19600
H          7.21400        6.17200       -4.61600
C          5.22200        6.99400       -4.58900
H          5.27700        7.31300       -3.54900
H          4.62100        7.70800       -5.15200
H          4.73500        6.01900       -4.61400
C          6.46100        6.32500       -6.61700
H          7.43300        6.11800       -7.06400
H          5.90400        5.38900       -6.58100
H          5.92200        7.03800       -7.24100
C          7.57900        8.82800       -3.80100
O          7.60500        8.10600       -2.80700
N          7.79600       10.14200       -3.72300
H          7.85900       10.64400       -4.60200
C          8.08900       10.88800       -2.49500
H          8.79200       10.29800       -1.90300
C          8.80200       12.19000       -2.89400
H          9.63800       11.96200       -3.55800
H          8.10400       12.84900       -3.41400
S          9.43800       13.02800       -1.41500
H          8.22600       13.29100       -0.89600
C          6.84000       11.10200       -1.60400
O          6.44600       12.22100       -1.29400
N          6.16500       10.03200       -1.20600
H          6.48800        9.11300       -1.47900
H          5.34700       10.16300       -0.63600
