36
0 1
H          6.61800        1.24900       -1.04600
C          6.78300        0.40200       -1.71000
H          7.01500        0.75400       -2.71300
H          5.88600       -0.21500       -1.74100
C          7.93200       -0.43100       -1.19300
O          7.75300       -1.60100       -0.88300
N          9.10900        0.18500       -1.07200
H          9.15900        1.15300       -1.34800
C         10.37100       -0.48600       -0.68100
H         10.55700       -1.27900       -1.40600
C         11.53800        0.52100       -0.78500
H         11.46700        1.00500       -1.76000
C         11.48000        1.62100        0.28500
H         10.52200        2.13800        0.24900
H         11.62200        1.19500        1.27900
H         12.27200        2.34800        0.10300
C         12.91400       -0.15000       -0.72100
H         12.97000       -0.94800       -1.46100
H         13.69200        0.58300       -0.93600
H         13.09200       -0.57100        0.26900
C         10.32300       -1.17300        0.69600
O         11.09400       -2.08900        0.95500
N          9.39600       -0.77200        1.57000
H          8.79800       -0.00700        1.30600
C          9.16500       -1.39200        2.87800
H         10.13200       -1.56100        3.35500
C          8.35400       -0.41600        3.74600
H          7.34900       -0.31700        3.33200
H          8.26700       -0.82000        4.75700
S          9.14200        1.22300        3.80600
H         10.20500        0.86700        4.53700
C          8.46600       -2.76900        2.81600
O          8.28500       -3.40600        3.84600
N          8.03000       -3.24100        1.65300
H          8.15500       -2.70900        0.80200
H          7.58400       -4.14200        1.64100
