42
0 1
H          1.35900        4.22300       -2.53200
C          0.53600        4.37200       -3.22800
H         -0.29000        3.70900       -2.97700
H          0.87300        4.16800       -4.24300
C          0.06800        5.80600       -3.14900
O          0.11300        6.52200       -4.13900
N         -0.37600        6.22100       -1.96300
H         -0.34200        5.57600       -1.18800
C         -0.87000        7.57900       -1.67000
H         -0.49500        8.26300       -2.43200
C         -2.41600        7.63500       -1.70000
H         -2.80800        6.92600       -0.96900
C         -2.96300        9.02700       -1.35100
H         -4.04900        9.03300       -1.44700
H         -2.72400        9.28500       -0.31900
H         -2.54400        9.77700       -2.02300
C         -2.97700        7.26100       -3.07900
H         -4.06300        7.35100       -3.08000
H         -2.56000        7.91700       -3.84300
H         -2.72400        6.23000       -3.32100
C         -0.32200        8.03700       -0.31600
O         -0.23200        7.24000        0.61600
N          0.03500        9.31800       -0.20200
H         -0.10400        9.93200       -0.99400
C          0.52100        9.95500        1.02600
H          0.02300        9.49000        1.87700
C          2.05100        9.77100        1.15600
H          2.48400        9.55100        0.17800
H          2.50900       10.69800        1.50500
C          2.43800        8.65500        2.14100
H          2.02200        7.70900        1.79900
H          3.52300        8.55600        2.14800
C          1.97400        8.91700        3.57500
O          1.52300        9.99200        3.94000
N          2.06100        7.94200        4.45100
H          2.39300        7.03600        4.17700
H          1.73500        8.15200        5.37700
C          0.14000       11.44400        1.06100
O         -0.21300       12.03300        0.04500
N          0.21000       12.06800        2.22900
H         -0.03400       13.04300        2.27100
H          0.53500       11.56400        3.04500
