42
0 1
H         -2.39200       -2.42200        3.08600
C         -1.60200       -3.15500        2.93100
H         -1.10200       -2.96500        1.98300
H         -2.03200       -4.15400        2.92700
C         -0.60000       -3.04800        4.05700
O         -0.74400       -2.20200        4.93100
N          0.41900       -3.90800        4.03100
H          0.47800       -4.53700        3.24700
C          1.41300       -4.06700        5.11700
H          0.86700       -4.24500        6.04300
C          2.31800       -5.29300        4.87300
H          3.00400       -5.38400        5.71500
C          1.49600       -6.58700        4.81400
H          0.84100       -6.59400        3.94300
H          2.16900       -7.44300        4.75700
H          0.89400       -6.68000        5.71900
C          3.15700       -5.18000        3.59100
H          3.78700       -6.06500        3.49000
H          2.51600       -5.10000        2.71300
H          3.80700       -4.30700        3.64400
C          2.28100       -2.82800        5.38100
O          2.89200       -2.73300        6.44000
N          2.32400       -1.86700        4.45500
H          1.79500       -2.01200        3.60300
C          2.98000       -0.56400        4.63500
H          3.92700       -0.74400        5.14500
C          3.30900        0.04000        3.25200
H          4.09500        0.78400        3.38900
H          3.71700       -0.74200        2.61000
C          2.14100        0.73200        2.52000
H          1.86800        1.63600        3.06500
H          2.47700        1.04000        1.53000
C          0.90600       -0.14800        2.35200
O          0.97700       -1.31000        1.98500
N         -0.27100        0.35100        2.65500
H         -0.35300        1.28700        3.00700
H         -1.04900       -0.28300        2.62000
C          2.18500        0.41700        5.52700
O          2.62200        1.53800        5.75500
N          0.99900        0.06100        6.00600
H          0.50900        0.70600        6.60100
H          0.60900       -0.84700        5.78700
