36
0 1
H          5.33000        8.97700       -3.55800
C          5.27700        9.51400       -2.61300
H          4.73500       10.44900       -2.75400
H          6.27900        9.72400       -2.24700
C          4.54000        8.67000       -1.60000
O          3.50800        9.08400       -1.09000
N          5.08100        7.48900       -1.30700
H          5.96100        7.24700       -1.73700
C          4.53300        6.52000       -0.34000
H          3.91300        7.06000        0.37700
C          3.64200        5.45300       -1.01600
H          3.31400        4.75800       -0.24100
C          2.37700        6.05800       -1.63400
H          2.63400        6.69800       -2.47800
H          1.71700        5.26300       -1.97900
H          1.85100        6.65400       -0.88700
C          4.37300        4.63600       -2.09000
H          3.70500        3.87000       -2.48500
H          4.69000        5.28300       -2.90800
H          5.24700        4.14400       -1.66300
C          5.65800        5.84900        0.45300
O          6.79700        5.78200       -0.00800
N          5.34600        5.33900        1.64500
H          4.38800        5.38700        1.96400
C          6.28000        4.61100        2.50700
H          6.95100        4.02300        1.88000
C          7.11200        5.63600        3.29700
H          7.45400        6.42800        2.62800
H          6.49100        6.08300        4.07600
S          8.56400        4.84500        4.05000
H          9.31600        4.80100        2.94200
C          5.51000        3.63700        3.42300
O          4.29600        3.74200        3.56800
N          6.18000        2.67900        4.04700
H          5.66800        2.05400        4.64800
H          7.18400        2.63400        3.97100
