41
0 1
H          8.47700        0.87100        8.83100
C          7.88700        0.38000        8.05900
H          7.17600       -0.30300        8.52100
H          8.54100       -0.17300        7.38600
C          7.12600        1.42100        7.27300
O          5.90400        1.39700        7.24100
N          7.85500        2.33700        6.63700
H          8.86100        2.27700        6.69000
C          7.30200        3.42400        5.81200
H          6.40600        3.04700        5.31800
C          6.87800        4.61800        6.70000
H          6.22000        4.23700        7.48100
C          8.06000        5.31700        7.38700
H          8.61900        4.59900        7.98600
H          8.72600        5.76200        6.64800
H          7.68700        6.10100        8.04700
C          6.08300        5.67200        5.92000
H          5.67800        6.40700        6.61600
H          6.71700        6.18900        5.20000
H          5.25000        5.19700        5.40000
C          8.30200        3.81900        4.72000
O          9.51100        3.67400        4.90100
N          7.80600        4.31300        3.58300
H          6.80700        4.45500        3.51900
C          8.60200        4.76100        2.42700
H          9.60600        5.01300        2.77100
C          8.73800        3.66100        1.35000
H          9.30100        4.08400        0.51600
C          9.53200        2.45200        1.85700
H          9.71900        1.76200        1.03400
H         10.48800        2.78200        2.26400
H          8.97700        1.93100        2.63700
C          7.39100        3.17100        0.80100
H          7.56200        2.44000        0.01000
H          6.80600        2.70200        1.59300
H          6.82600        4.00400        0.38400
C          8.00100        6.03400        1.82500
O          6.81700        6.31000        1.98100
N          8.79500        6.83000        1.12300
H          8.39600        7.66700        0.73000
H          9.76700        6.60300        1.00000
