49
0 1
H          4.79400        5.42600       -1.01100
C          4.16000        6.28500       -0.79400
H          3.17700        5.94000       -0.48000
H          4.07000        6.90500       -1.68400
C          4.78800        7.09100        0.31800
O          5.85200        6.73300        0.80300
N          4.12000        8.17800        0.70900
H          3.25900        8.37400        0.22500
C          4.52900        9.14500        1.75100
H          3.81200        9.96500        1.70300
C          4.40500        8.56600        3.18000
H          5.11400        7.74700        3.29900
C          4.70100        9.62700        4.24900
H          4.60200        9.18700        5.24200
H          5.71700       10.00500        4.14700
H          4.00200       10.45900        4.15600
C          2.99600        8.02000        3.45100
H          2.93500        7.65200        4.47500
H          2.25300        8.80400        3.30700
H          2.78000        7.18700        2.78300
C          5.88900        9.80600        1.47900
O          5.91800       10.94400        1.02300
N          7.00200        9.11300        1.73400
H          6.89000        8.15200        2.03500
C          8.36400        9.55600        1.39800
H          8.38300       10.64300        1.31500
C          9.31600        9.14600        2.53000
H         10.31900        9.50600        2.29400
H          9.00200        9.64800        3.44500
C          9.38600        7.67200        2.80000
C         10.20600        6.80100        2.17200
H         10.92900        7.07600        1.41200
N          9.95200        5.51800        2.61900
H         10.44000        4.70400        2.27800
C          8.94300        5.49900        3.55800
C          8.32700        4.46700        4.28200
H          8.63400        3.44300        4.14100
C          7.30600        4.78800        5.19400
H          6.82000        4.00600        5.76100
C          6.92300        6.13000        5.37400
H          6.14400        6.37300        6.08400
C          7.55000        7.15700        4.64200
H          7.25800        8.18300        4.79700
C          8.56900        6.86800        3.70700
C          8.86300        9.00200        0.04900
O          9.88600        9.44000       -0.46400
N          8.18400        8.03100       -0.54900
H          8.52600        7.67900       -1.42600
H          7.37500        7.63000       -0.09400
