42
0 1
H          4.69700        5.82900       -4.02900
C          5.49100        6.56900       -3.94000
H          5.30800        7.40100       -4.61700
H          6.44600        6.10600       -4.18200
C          5.54300        7.07800       -2.51900
O          6.54100        6.89800       -1.83700
N          4.45500        7.70300       -2.06700
H          3.68200        7.81700       -2.70200
C          4.32900        8.26900       -0.70500
H          5.21600        8.87400       -0.51700
C          3.10200        9.20700       -0.65500
H          3.15500        9.86100       -1.52600
C          1.76700        8.45100       -0.72400
H          0.94600        9.16700       -0.78000
H          1.73400        7.81600       -1.60900
H          1.63100        7.83500        0.16600
C          3.08600       10.11500        0.57900
H          4.03700       10.64200        0.66100
H          2.28500       10.84900        0.48600
H          2.92400        9.53200        1.48600
C          4.29500        7.20300        0.40800
O          4.50300        7.51500        1.57700
N          4.04300        5.94000        0.05400
H          3.93000        5.73800       -0.92800
C          4.07100        4.78500        0.95300
H          4.89400        4.92100        1.65600
C          2.74900        4.72000        1.74200
H          2.60300        5.66100        2.27200
H          1.92100        4.60400        1.04100
C          2.68400        3.57500        2.76200
H          1.76700        3.68800        3.34100
H          2.61100        2.63100        2.22200
S          4.08000        3.45500        3.92100
C          4.00400        5.08000        4.72600
H          4.75500        5.12800        5.51500
H          4.20600        5.86700        3.99800
H          3.01600        5.23000        5.16100
C          4.33300        3.50200        0.15100
O          3.93500        3.39400       -1.00500
N          4.98900        2.51300        0.74100
H          5.29100        2.60800        1.69800
H          5.16800        1.67600        0.21100
