36
0 1
H         -3.95000       10.10200      -15.24300
C         -3.16400        9.74200      -15.90300
H         -2.99800       10.45400      -16.70900
H         -3.44900        8.77700      -16.32100
C         -1.88600        9.57400      -15.11500
O         -1.35400        8.47600      -15.03400
N         -1.40200       10.66800      -14.52900
H         -1.92500       11.52700      -14.61400
C         -0.17600       10.71900      -13.71100
H          0.06100        9.71000      -13.36900
C          1.02900       11.23900      -14.53000
H          0.79100       12.23200      -14.91300
C          2.31000       11.34700      -13.68900
H          3.14200       11.65600      -14.32200
H          2.19300       12.09900      -12.91000
H          2.54700       10.38300      -13.23700
C          1.34700       10.32900      -15.72500
H          0.51100       10.31700      -16.42300
H          2.22400       10.69700      -16.25600
H          1.53400        9.31100      -15.38000
C         -0.42600       11.58700      -12.47600
O         -1.09700       12.61400      -12.56500
N          0.11100       11.18900      -11.32200
H          0.68500       10.35600      -11.31100
C          0.02600       11.93300      -10.06400
H          0.05500       13.00100      -10.28600
C         -1.32000       11.60400       -9.39500
H         -2.11900       11.64400      -10.13700
H         -1.28000       10.59500       -8.97900
S         -1.69300       12.79600       -8.07600
H         -2.10700       13.79200       -8.87000
C          1.23600       11.60100       -9.16600
O          1.94900       10.63200       -9.40800
N          1.50000       12.38600       -8.13100
H          2.28800       12.15600       -7.54800
H          0.87900       13.14500       -7.90300
