36
0 1
H         -0.80100        2.17900       -3.46500
C         -0.16100        1.29800       -3.41900
H         -0.78000        0.40200       -3.40100
H          0.45700        1.34500       -2.52500
C          0.72300        1.27500       -4.64200
O          0.62500        2.15000       -5.49000
N          1.58000        0.25800       -4.74300
H          1.60200       -0.41400       -3.99300
C          2.54100        0.09600       -5.85700
H          3.11100        1.02300       -5.93300
C          3.53700       -1.03600       -5.52100
H          3.92000       -0.84900       -4.51700
C          2.88700       -2.42800       -5.51900
H          2.55200       -2.69400       -6.52100
H          3.61700       -3.16800       -5.18800
H          2.03900       -2.45100       -4.83600
C          4.74500       -1.06300       -6.46300
H          4.44000       -1.34100       -7.47300
H          5.21200       -0.07900       -6.49200
H          5.47600       -1.78800       -6.10400
C          1.86900       -0.10700       -7.22700
O          2.46600        0.17800       -8.26100
N          0.61100       -0.55400       -7.25100
H          0.15300       -0.71500       -6.36700
C         -0.22700       -0.70300       -8.44900
H          0.39000       -1.10300       -9.25400
C         -1.33400       -1.72200       -8.14900
H         -1.94000       -1.88400       -9.04200
H         -0.88200       -2.67000       -7.85600
O         -2.15200       -1.24900       -7.09600
H         -2.64900       -0.49800       -7.45200
C         -0.80200        0.64000       -8.94300
O         -1.99700        0.76300       -9.19400
N          0.01400        1.68000       -9.04500
H          0.99300        1.56600       -8.81700
H         -0.36500        2.57000       -9.32000
