46
0 1
H          9.66400       16.67700        2.78000
C          9.23000       15.72200        3.07200
H          9.89900       15.21400        3.76400
H          9.07300       15.10000        2.19200
C          7.90600       15.95800        3.75700
O          7.71200       15.54800        4.89600
N          6.98600       16.62800        3.06400
H          7.21700       16.91300        2.12600
C          5.64200       16.96300        3.57700
H          5.73800       17.16400        4.64500
C          5.08600       18.25500        2.93000
H          4.83500       18.06000        1.88700
C          3.83400       18.76500        3.66200
H          4.06700       18.97400        4.70600
H          3.47400       19.67700        3.18600
H          3.03400       18.02800        3.61600
C          6.11200       19.40000        2.96600
H          6.43400       19.58200        3.99100
H          6.97900       19.15600        2.35300
H          5.66500       20.31000        2.56400
C          4.69800       15.75400        3.44600
O          3.71600       15.77900        2.70800
N          5.02600       14.65800        4.13400
H          5.88600       14.69500        4.67200
C          4.31800       13.37000        4.07600
H          4.05600       13.18900        3.03300
C          5.27200       12.24300        4.51000
H          5.46800       12.34700        5.57800
H          4.77200       11.28500        4.36200
C          6.59500       12.20000        3.76200
C          6.61300       11.98800        2.36800
H          5.68500       11.85000        1.83000
C          7.83800       11.95300        1.67400
H          7.86200       11.79300        0.60700
C          9.05000       12.11600        2.37500
O         10.22900       12.08700        1.70100
H         10.97900       12.04800        2.29500
C          9.03500       12.32100        3.77100
H          9.95900       12.45600        4.31100
C          7.80800       12.36800        4.45900
H          7.79700       12.54400        5.52600
C          2.98200       13.35300        4.85600
O          2.68400       12.43000        5.60400
N          2.15900       14.38400        4.72400
H          1.29300       14.37600        5.23600
H          2.39300       15.12100        4.07400
