42
0 1
H         12.46300        4.61500        8.34800
C         12.47600        4.56800        7.26100
H         12.96600        5.45600        6.86400
H         11.45900        4.51000        6.87900
C         13.24700        3.34600        6.82400
O         14.27600        3.46500        6.17000
N         12.74200        2.16300        7.17200
H         11.87900        2.15700        7.69100
C         13.33200        0.85800        6.81300
H         14.41500        0.97300        6.87100
C         12.96700       -0.20400        7.87800
H         13.30000        0.19600        8.83700
C         11.46400       -0.48800        8.02600
H         11.06900       -0.95600        7.12500
H         11.30500       -1.16700        8.86400
H         10.91800        0.43300        8.22000
C         13.72400       -1.52300        7.67900
H         13.37600       -2.03700        6.78400
H         14.79300       -1.32800        7.59100
H         13.55700       -2.17200        8.53900
C         13.04000        0.48200        5.34600
O         12.36300       -0.49600        5.04100
N         13.53700        1.30200        4.41500
H         14.05900        2.10400        4.75000
C         13.29600        1.20700        2.96300
H         12.24000        0.97200        2.82100
C         13.55800        2.57000        2.28900
H         14.62500        2.79300        2.33900
H         13.27500        2.50000        1.23700
C         12.79300        3.74700        2.90900
H         13.15800        3.91900        3.92000
H         13.02400        4.63800        2.32300
S         10.98900        3.56200        2.96800
C         10.54000        5.20600        3.58300
H          9.45800        5.26500        3.70200
H         11.02100        5.38300        4.54500
H         10.86600        5.96400        2.87000
C         14.08000        0.06600        2.27400
O         14.73900        0.25800        1.25900
N         14.06000       -1.13900        2.82400
H         13.49500       -1.29500        3.64900
H         14.57500       -1.88000        2.38100
