39
0 1
H          6.04800       11.50200        2.27000
C          6.56700       10.55300        2.14000
H          6.16300        9.81100        2.82600
H          7.63000       10.69000        2.33600
C          6.38800       10.07300        0.72000
O          7.36000        9.91800       -0.00700
N          5.13400        9.87100        0.31200
H          4.39100       10.04700        0.96900
C          4.76300        9.35600       -1.02700
H          5.27700        8.40600       -1.17600
C          3.24700        9.08600       -1.12300
H          3.03400        8.67800       -2.11100
C          2.80300        8.03800       -0.09400
H          2.91600        8.41700        0.92200
H          1.75600        7.78400       -0.26100
H          3.40100        7.13400       -0.21000
C          2.39400       10.35100       -0.94200
H          2.64100       11.08400       -1.71000
H          1.33900       10.09700       -1.04300
H          2.55900       10.79400        0.04000
C          5.20200       10.25600       -2.19300
O          5.20100        9.82100       -3.33900
N          5.59300       11.50000       -1.91000
H          5.51700       11.80200       -0.95000
C          6.13700       12.45700       -2.87400
H          5.50500       12.44600       -3.76300
C          6.08700       13.86300       -2.24200
H          6.83200       13.92500       -1.44900
H          6.34500       14.60400       -2.99800
C          4.73800       14.20100       -1.63300
O          4.40400       13.77200       -0.54200
N          3.91700       14.96500       -2.31400
H          4.17600       15.31600       -3.21700
H          3.03400       15.16500       -1.87900
C          7.57100       12.12300       -3.34200
O          8.07400       12.75600       -4.26300
N          8.26300       11.17300       -2.72200
H          9.19200       10.96800       -3.04700
H          7.85700       10.67000       -1.94400
