49
0 1
H          4.70800        1.47500       -6.50300
C          5.15700        0.48600       -6.45400
H          5.36200        0.12100       -7.45800
H          4.47500       -0.19700       -5.94900
C          6.44600        0.55800       -5.67400
O          6.60200       -0.13200       -4.67600
N          7.37200        1.40900       -6.11800
H          7.15200        1.95600       -6.93500
C          8.73400        1.53000       -5.54700
H          9.17300        0.53200       -5.52000
C          9.63900        2.40700       -6.43800
H         10.63400        2.43500       -5.99400
C          9.78500        1.80800       -7.84300
H         10.14000        0.77900       -7.76600
H          8.83300        1.82100       -8.37300
H         10.51500        2.38400       -8.41100
C          9.13900        3.85400       -6.56800
H          8.15700        3.88300       -7.03600
H          9.08900        4.32100       -5.58400
H          9.83900        4.42500       -7.17800
C          8.77900        2.03800       -4.09600
O          9.81700        1.95300       -3.45000
N          7.66300        2.55300       -3.57700
H          6.84600        2.57000       -4.16700
C          7.47100        2.93900       -2.17400
H          8.41600        3.30100       -1.76800
C          6.45100        4.08600       -2.13200
H          6.25500        4.35700       -1.09300
H          6.89900        4.95900       -2.61000
C          5.14900        3.79800       -2.81900
C          4.05800        3.25800       -2.23300
H          3.99300        2.98900       -1.18400
N          3.06300        3.08500       -3.17600
H          2.15500        2.69800       -2.95900
C          3.47000        3.49700       -4.42700
C          2.84400        3.52100       -5.68200
H          1.82900        3.17000       -5.79100
C          3.55200        4.01800       -6.79100
H          3.07900        4.05500       -7.76300
C          4.87300        4.47500       -6.63200
H          5.40800        4.87200       -7.48500
C          5.49200        4.44600       -5.36600
H          6.49600        4.82600       -5.24900
C          4.80600        3.95900       -4.23100
C          7.02400        1.77100       -1.26900
O          6.82100        1.95600       -0.07400
N          6.83300        0.56500       -1.79000
H          6.54800       -0.18100       -1.17900
H          6.96500        0.40500       -2.78000
