42
0 1
H          2.35200       10.40100       -4.24700
C          2.80400        9.45600       -4.54000
H          3.25400        9.55600       -5.52700
H          2.05000        8.67200       -4.56100
C          3.88100        9.08700       -3.54700
O          5.03900        8.95300       -3.91900
N          3.49100        8.92000       -2.28400
H          2.50800        9.00900       -2.07400
C          4.37300        8.53600       -1.16700
H          5.25900        8.04300       -1.57100
C          4.84300        9.77100       -0.35900
H          3.96600       10.28300        0.04000
C          5.75100        9.39500        0.82200
H          6.60400        8.81300        0.46900
H          6.11600       10.29800        1.31200
H          5.19900        8.81900        1.56300
C          5.62400       10.76800       -1.22600
H          5.97700       11.60100       -0.61900
H          6.47700       10.27100       -1.69100
H          4.98100       11.17100       -2.00800
C          3.64500        7.53000       -0.27100
O          2.43800        7.64000       -0.06600
N          4.37700        6.56500        0.28800
H          5.37500        6.56300        0.10400
C          3.90200        5.49200        1.17900
H          3.00300        5.05700        0.74200
C          4.99200        4.40600        1.21300
H          4.67600        3.58400        1.85700
H          5.11800        4.00300        0.20800
C          6.33000        4.92700        1.68100
N          7.19900        5.71100        0.91700
C          8.23000        6.00500        1.72200
H          9.08500        6.60100        1.42900
N          8.04500        5.46700        2.94000
H          8.67400        5.56100        3.72500
C          6.84700        4.78800        2.93500
H          6.37200        4.27500        3.76200
C          3.50300        5.96100        2.59800
O          3.70800        5.26200        3.58400
N          2.94200        7.15300        2.74900
H          2.68600        7.44900        3.67500
H          2.70800        7.69400        1.92900
