46
0 1
H          2.28900        3.51000       -3.21300
C          2.19400        2.91400       -2.30700
H          3.12900        2.39600       -2.10300
H          1.39100        2.19000       -2.42900
C          1.86200        3.82300       -1.14700
O          0.81600        3.67400       -0.52800
N          2.75300        4.76900       -0.85700
H          3.57300        4.85300       -1.44000
C          2.58600        5.78200        0.19600
H          1.51900        5.98800        0.29000
C          3.07300        5.25400        1.56300
H          2.54200        4.32500        1.77200
C          4.57700        4.95400        1.60900
H          5.15500        5.86600        1.45800
H          4.83600        4.52700        2.57800
H          4.83600        4.23400        0.83400
C          2.74000        6.23200        2.69700
H          2.98500        5.77300        3.65500
H          3.31300        7.15400        2.59500
H          1.67400        6.46000        2.68800
C          3.26900        7.08400       -0.22800
O          4.33000        7.05800       -0.85100
N          2.64300        8.22400        0.07500
H          1.81800        8.18600        0.65400
C          2.98500        9.53000       -0.49700
H          4.03900        9.52800       -0.77900
C          2.14500        9.77300       -1.76700
H          1.10900        9.95000       -1.47000
H          2.50100       10.68000       -2.25600
C          2.17100        8.63500       -2.77500
C          1.12400        7.69100       -2.80200
H          0.28000        7.79700       -2.13400
C          1.18600        6.59100       -3.67800
H          0.39600        5.85500       -3.69400
C          2.29300        6.43600       -4.53700
O          2.35700        5.36500       -5.36900
H          3.10400        5.41900       -5.96500
C          3.33700        7.38700       -4.52100
H          4.19100        7.26600       -5.16800
C          3.27400        8.48300       -3.63800
H          4.08900        9.19200       -3.60200
C          2.76800       10.65800        0.52100
O          1.95300       10.54400        1.42900
N          3.46900       11.77500        0.37700
H          3.32000       12.51500        1.04300
H          4.13500       11.86600       -0.37300
