39
0 1
H         10.83500        6.11800        3.45100
C         10.07800        5.34600        3.32200
H         10.46100        4.39500        3.68800
H          9.81600        5.26200        2.27000
C          8.85000        5.72800        4.11400
O          8.83300        6.76900        4.75700
N          7.82600        4.87700        4.07000
H          7.94300        4.01700        3.55600
C          6.54400        5.05300        4.77700
H          6.70800        5.71000        5.63300
C          5.46500        5.71000        3.88500
H          4.54500        5.76600        4.46800
C          5.83100        7.14500        3.49200
H          6.69800        7.15000        2.83100
H          4.99100        7.61400        2.98100
H          6.06600        7.72300        4.38600
C          5.15800        4.91200        2.61000
H          4.35500        5.40100        2.05800
H          6.04100        4.85900        1.97400
H          4.83600        3.90200        2.86300
C          6.04000        3.71600        5.32600
O          6.40000        2.65200        4.82400
N          5.19600        3.75700        6.35800
H          4.90000        4.65500        6.71800
C          4.56200        2.57300        6.96000
H          4.28400        1.89000        6.15700
C          5.55700        1.83400        7.87500
H          6.50600        1.72200        7.35000
C          5.82500        2.53400        9.20800
H          4.92000        2.56600        9.81500
H          6.59400        1.98600        9.75300
H          6.17800        3.55000        9.02900
O          5.06500        0.54500        8.15800
H          5.41700       -0.05000        7.48900
C          3.26900        2.96100        7.69300
O          2.96800        4.14000        7.84800
N          2.47500        1.99900        8.14000
H          2.77800        1.03900        8.07800
H          1.63000        2.25900        8.62100
