42
0 1
H          3.11200        9.37000       -7.22700
C          2.97500        8.59800       -6.47200
H          3.93000        8.35300       -6.01200
H          2.55200        7.70700       -6.93300
C          2.02400        9.10100       -5.41200
O          0.97000        8.51100       -5.20300
N          2.40300       10.19100       -4.74500
H          3.26600       10.63300       -5.01600
C          1.56700       10.88400       -3.74800
H          0.92100       10.14100       -3.27700
C          2.40600       11.52300       -2.62400
H          1.72300       12.03900       -1.94900
C          3.13200       10.44800       -1.80700
H          3.64300       10.91000       -0.96200
H          2.40900        9.72700       -1.42500
H          3.86300        9.92600       -2.42500
C          3.43600       12.54700       -3.12200
H          3.95100       12.99000       -2.26900
H          4.17200       12.06900       -3.76700
H          2.93900       13.34500       -3.67300
C          0.64400       11.92000       -4.39900
O          1.00500       12.57800       -5.37300
N         -0.55400       12.08000       -3.84000
H         -0.78100       11.46200       -3.06700
C         -1.67600       12.85100       -4.39400
H         -1.65400       12.74200       -5.47900
C         -3.01000       12.24500       -3.89200
H         -3.01000       12.22900       -2.80100
H         -3.82900       12.89000       -4.21300
C         -3.31900       10.82900       -4.42600
H         -4.28600       10.50800       -4.03800
H         -3.39900       10.88100       -5.51200
C         -2.28200        9.77100       -4.04800
O         -1.78400        9.71900       -2.93400
N         -1.85000        8.95800       -4.98500
H         -2.20500        9.00900       -5.91800
H         -0.99800        8.44200       -4.78000
C         -1.55200       14.36900       -4.12500
O         -2.49800       15.03300       -3.71900
N         -0.37400       14.94600       -4.31600
H         -0.28600       15.93200       -4.13500
H          0.39100       14.39700       -4.68400
