36
0 1
H         -2.41600        4.53000       -3.90600
C         -1.73100        5.37700       -3.88000
H         -1.69900        5.78500       -2.87100
H         -2.06700        6.13700       -4.58200
C         -0.35300        4.90100       -4.27500
O         -0.16100        3.72300       -4.54000
N          0.61300        5.82000       -4.29600
H          0.36300        6.77000       -4.07600
C          2.01000        5.54000       -4.70100
H          1.99600        5.09200       -5.69500
C          2.81500        6.85800       -4.78100
H          2.79800        7.33800       -3.80200
C          4.28100        6.65400       -5.18700
H          4.33600        6.11100       -6.13100
H          4.77800        7.61800       -5.29700
H          4.81200        6.08900       -4.42100
C          2.19200        7.82400       -5.80100
H          2.17000        7.36000       -6.78800
H          1.17900        8.09500       -5.51000
H          2.78300        8.74000       -5.85300
C          2.70000        4.52400       -3.77600
O          3.56100        3.76800       -4.21700
N          2.29500        4.45600       -2.50500
H          1.54600        5.06500       -2.21500
C          2.74200        3.46400       -1.51700
H          3.81500        3.31200       -1.64100
C          2.50500        4.03100       -0.11100
H          2.88600        3.33500        0.63800
H          3.03500        4.97900       -0.00900
O          1.12200        4.24400        0.09500
H          0.71800        3.36700        0.16700
C          2.06700        2.09000       -1.70000
O          1.58700        1.48900       -0.74300
N          1.96200        1.58900       -2.92300
H          2.34100        2.10500       -3.70600
H          1.47700        0.71800       -3.05300
