42
0 1
H          4.54100       12.46500       -1.31500
C          5.57300       12.79300       -1.42500
H          6.06900       12.80100       -0.45600
H          5.59100       13.79500       -1.85100
C          6.30200       11.85400       -2.35600
O          6.78500       12.27500       -3.39700
N          6.37200       10.57900       -1.97400
H          5.97200       10.33900       -1.08100
C          7.06700        9.51000       -2.73000
H          7.36900        9.91500       -3.69700
C          8.36000        9.05900       -2.01600
H          8.85500        8.31400       -2.63900
C          9.34500       10.22100       -1.83800
H          9.52900       10.69400       -2.80300
H          8.94600       10.96300       -1.14800
H         10.29000        9.84400       -1.44700
C          8.09000        8.42300       -0.64400
H          9.03200        8.08600       -0.21000
H          7.62900        9.14500        0.03000
H          7.43700        7.55800       -0.75400
C          6.16600        8.31100       -3.06600
O          6.63200        7.31200       -3.60800
N          4.87300        8.38900       -2.73600
H          4.52900        9.26100       -2.36000
C          3.85700        7.37300       -3.03400
H          4.02600        7.00100       -4.04600
C          3.99000        6.19100       -2.05400
H          5.02800        6.09100       -1.73300
H          3.38800        6.37800       -1.16400
C          3.58100        4.87700       -2.67000
N          2.27100        4.45000       -2.89300
C          2.37000        3.25800       -3.50000
H          1.52400        2.65400       -3.80400
N          3.66000        2.93000       -3.68300
H          3.99300        2.08700       -4.12900
C          4.43900        3.94400       -3.17200
H          5.51900        4.01400       -3.17900
C          2.45300        8.00000       -2.99000
O          2.29300        9.14800       -2.58600
N          1.42000        7.27700       -3.39500
H          1.55400        6.30100       -3.62400
H          0.50200        7.68800       -3.35600
