39
0 1
H          2.26900       -2.66900        1.97500
C          1.39200       -2.67500        1.33000
H          0.55200       -3.12400        1.85900
H          1.59600       -3.24700        0.42500
C          1.03100       -1.26000        0.95100
O         -0.09100       -0.82500        1.17700
N          1.97500       -0.54200        0.34100
H          2.87100       -0.97600        0.18300
C          1.79100        0.86000       -0.10200
H          1.44300        1.44000        0.75400
C          3.12100        1.48300       -0.57500
H          2.93000        2.51900       -0.85900
C          4.15600        1.50500        0.55600
H          3.73800        2.01500        1.42500
H          4.44600        0.49300        0.83800
H          5.04300        2.04900        0.22900
C          3.72800        0.76500       -1.79000
H          4.64700        1.27000       -2.08700
H          3.95600       -0.27300       -1.55200
H          3.03500        0.80000       -2.63100
C          0.71600        1.03100       -1.18800
O          0.26300        2.14200       -1.43900
N          0.28500       -0.06500       -1.81400
H          0.70400       -0.94600       -1.54600
C         -0.84500       -0.13300       -2.74200
H         -0.83600        0.75900       -3.37200
C         -0.63700       -1.37200       -3.62900
H         -1.42200       -1.42100       -4.38400
H          0.32100       -1.30000       -4.14300
C         -0.64600       -2.64500       -2.80200
O          0.35000       -3.02800       -2.21200
N         -1.77800       -3.29400       -2.68000
H         -1.77300       -4.11000       -2.09600
H         -2.62200       -2.90300       -3.06800
C         -2.22800       -0.17500       -2.04500
O         -3.23800       -0.39900       -2.70500
N         -2.31200       -0.05100       -0.72600
H         -3.21900       -0.09700       -0.29600
H         -1.47600        0.04700       -0.16600
