58
0 1
H          1.16100       10.92500        5.39800
C          1.69200       11.54900        4.68200
H          1.70400       12.58000        5.03400
H          1.20000       11.50000        3.71200
C          3.11300       11.05800        4.54700
O          4.04700       11.76800        4.90400
N          3.27400        9.84000        4.03200
H          2.44200        9.33500        3.77100
C          4.58000        9.19100        3.81100
H          5.37000        9.93100        3.94300
C          4.80100        8.08700        4.86200
H          4.00200        7.34800        4.78000
H          5.75000        7.59300        4.65100
C          4.85600        8.63400        6.30300
H          5.58200        9.44600        6.34700
H          3.87800        9.02800        6.57500
C          5.24500        7.59400        7.35600
O          5.71200        7.85800        8.45200
O          5.06100        6.30000        7.02800
H          5.37200        5.81000        7.79100
C          4.76400        8.65000        2.37800
O          5.81600        8.10900        2.04900
N          3.76800        8.82000        1.50300
H          2.97600        9.38400        1.78600
C          3.79900        8.41300        0.08900
H          4.04100        7.35200        0.01900
C          2.39900        8.65000       -0.50100
H          2.40700        8.40300       -1.56300
H          1.69000        7.98400       -0.00700
C          1.92300       10.07100       -0.32000
N          1.47000       10.61700        0.88500
C          1.27800       11.92300        0.64200
H          0.93700       12.64000        1.37700
N          1.58300       12.21600       -0.63400
H          1.53800       13.13600       -1.04900
C          2.00100       11.06000       -1.25600
H          2.36600       10.95300       -2.26800
C          4.85700        9.16300       -0.73700
O          5.27600        8.67400       -1.78000
N          5.30800       10.32800       -0.26700
H          4.85200       10.69900        0.55900
C          6.43300       11.08700       -0.82200
H          6.33100       11.07000       -1.90800
C          6.33500       12.56200       -0.37300
H          7.01500       13.13400       -1.00500
H          5.32900       12.93600       -0.57300
C          6.71200       12.87200        1.09400
H          7.66300       12.40300        1.34700
H          6.85600       13.94900        1.18400
C          5.66800       12.47200        2.13600
O          4.58100       11.96100        1.89300
O          6.03300       12.71500        3.40900
H          5.29900       12.43100        3.98700
C          7.82000       10.48000       -0.51200
O          8.83500       11.03300       -0.91700
N          7.91700        9.38200        0.23100
H          8.83300        9.00900        0.41300
H          7.08900        8.92500        0.58900
