62
0 1
H          2.94800        8.22600       -4.98800
C          3.36300        7.29100       -4.61600
H          3.92300        6.80100       -5.41100
H          2.55800        6.63800       -4.28100
C          4.28900        7.57600       -3.45900
O          4.04400        7.12000       -2.34800
N          5.33600        8.35500       -3.71400
H          5.44700        8.67900       -4.66900
C          6.42100        8.68300       -2.77500
H          6.68400        7.76700       -2.24600
C          7.67400        9.13200       -3.56100
H          7.46000       10.05300       -4.10600
H          8.46000        9.35500       -2.83900
C          8.25200        8.07600       -4.52500
H          9.29900        8.31900       -4.70400
H          8.22200        7.09200       -4.05600
C          7.56800        8.00100       -5.89100
O          6.56300        8.61400       -6.22900
O          8.14600        7.15600       -6.76400
H          7.63400        7.21800       -7.57100
C          6.04000        9.71300       -1.68000
O          6.91300       10.34200       -1.08600
N          4.74600        9.90600       -1.39400
H          4.08100        9.27800       -1.82000
C          4.22300       10.91600       -0.45200
H          4.64400       11.88400       -0.72500
C          2.69400       10.99600       -0.61300
H          2.32800       11.84800       -0.03800
H          2.45700       11.19400       -1.66000
C          1.95000        9.75100       -0.15700
C          1.60900        9.59300        1.20100
H          1.84600       10.37200        1.91400
C          0.97800        8.41400        1.63900
H          0.72500        8.27900        2.68000
C          0.68300        7.38800        0.71900
O          0.10000        6.24100        1.15300
H          0.15400        5.54600        0.49600
C          0.99900        7.55600       -0.64700
H          0.76800        6.77400       -1.35300
C          1.62500        8.73900       -1.08200
H          1.86600        8.86200       -2.12800
C          4.59800       10.67400        1.02700
O          4.26500       11.48100        1.89000
N          5.26700        9.55900        1.32100
H          5.53300        8.97400        0.53900
C          5.64100        9.07300        2.65200
H          5.39100        9.84700        3.37900
C          4.79300        7.82700        2.99700
H          4.89100        7.64100        4.06800
H          3.74300        8.05400        2.80600
C          5.15700        6.51800        2.26200
H          6.16500        6.21100        2.53800
H          4.47200        5.73500        2.58800
C          5.08600        6.63000        0.74100
O          5.97300        7.10600        0.04300
O          3.93100        6.22300        0.18100
H          3.98600        6.45800       -0.76300
C          7.16000        8.83200        2.78900
O          7.61300        8.24100        3.76200
N          7.97300        9.25100        1.82500
H          7.60100        9.72800        1.01600
H          8.95900        9.08000        1.92400
