65
0 1
H         11.70400       10.77800       -0.07800
C         12.13100       10.40400        0.85100
H         12.12100       11.18700        1.60700
H         13.15600       10.07800        0.67600
C         11.32000        9.22600        1.33700
O         11.84400        8.13000        1.47500
N         10.03500        9.45500        1.59800
H          9.66100       10.37500        1.41300
C          9.07300        8.42900        2.01800
H          9.32300        7.50200        1.49900
C          9.22300        8.16000        3.53400
H          8.59400        7.31200        3.80600
H         10.25100        7.84600        3.71700
C          8.92900        9.34800        4.47600
H          9.23400        9.06200        5.48300
H          9.51600       10.21500        4.17700
C          7.45600        9.73600        4.54000
O          7.03400       10.88300        4.44400
O          6.60600        8.69400        4.64400
H          5.72400        9.01000        4.38200
C          7.64700        8.81700        1.57400
O          7.40800        9.96300        1.19400
N          6.70300        7.86900        1.58600
H          6.93100        6.96300        1.96200
C          5.35000        8.07100        1.04300
H          5.45700        8.42300        0.01600
C          4.60100        6.73500        0.99700
H          5.20300        6.00900        0.45000
H          4.46800        6.36400        2.01500
C          3.26300        6.82500        0.33100
C          2.07000        6.89600        0.96400
H          1.93600        6.86700        2.03900
N          1.06200        7.05500        0.03300
H          0.08900        7.16700        0.27600
C          1.55800        7.10100       -1.25200
C          0.95400        7.26200       -2.50800
H         -0.11500        7.38600       -2.58700
C          1.76200        7.27200       -3.65800
H          1.31400        7.39900       -4.63400
C          3.15500        7.12000       -3.53800
H          3.77200        7.12800       -4.42600
C          3.75200        6.96100       -2.27100
H          4.82200        6.84500       -2.19400
C          2.96800        6.94700       -1.09600
C          4.52200        9.13200        1.79600
O          4.57600        9.22600        3.02400
N          3.72300        9.91100        1.06100
H          3.63500        9.71800        0.07300
C          2.89900       11.00500        1.58400
H          2.62600       10.77800        2.61500
C          3.69600       12.32800        1.54100
H          4.22400       12.40300        0.58900
H          3.00500       13.17100        1.60000
C          4.70400       12.46000        2.69500
H          5.42600       11.65000        2.63800
H          5.25100       13.39600        2.58300
C          4.02300       12.47000        4.06600
O          2.83500       12.73600        4.22700
O          4.83700       12.19000        5.11200
H          5.69300       11.83300        4.81700
C          1.57800       11.14200        0.81500
O          1.44700       10.69200       -0.31800
N          0.58200       11.77700        1.41800
H         -0.28700       11.88600        0.92200
H          0.71300       12.15300        2.34600
