58
0 1
H         16.37600        7.38800        3.63400
C         17.31900        7.10000        3.17100
H         18.09300        7.02200        3.93200
H         17.60700        7.84600        2.43100
C         17.15300        5.76500        2.48800
O         17.33100        5.65900        1.28000
N         16.76800        4.74500        3.25300
H         16.62100        4.92400        4.24100
C         16.60300        3.36300        2.77500
H         17.56300        3.04600        2.36400
C         16.27800        2.42700        3.95900
H         16.34200        1.40500        3.58300
H         17.05000        2.53000        4.72300
C         14.88800        2.58800        4.61200
H         14.11400        2.67600        3.85100
H         14.67700        1.68000        5.17800
C         14.76600        3.76000        5.58700
O         15.62900        4.59600        5.81800
O         13.58600        3.84200        6.22700
H         13.66500        4.60000        6.80800
C         15.57600        3.20600        1.63400
O         15.60600        2.21100        0.91700
N         14.70400        4.19800        1.43000
H         14.73100        4.98400        2.06300
C         13.77000        4.28400        0.30200
H         13.13500        3.39700        0.30000
C         12.88200        5.53100        0.46400
H         13.49400        6.43200        0.40000
H         12.17200        5.54900       -0.36500
C         12.08000        5.56400        1.77400
H         11.26300        6.27400        1.64000
H         11.64000        4.58100        1.94400
S         13.00200        6.07200        3.25700
C         11.65700        6.02600        4.47000
H         10.86000        6.70200        4.16000
H         11.26500        5.01100        4.54500
H         12.03500        6.33900        5.44400
C         14.47800        4.33900       -1.06400
O         13.87000        4.00300       -2.07500
N         15.75600        4.73600       -1.10100
H         16.20100        5.00700       -0.23100
C         16.57900        4.76000       -2.31600
H         15.91800        4.91800       -3.17000
C         17.56300        5.94600       -2.26500
H         18.37800        5.70300       -1.58100
H         17.99200        6.07400       -3.26000
C         16.94900        7.29000       -1.82200
H         16.82400        7.28900       -0.74000
H         17.64300        8.09000       -2.07900
C         15.59400        7.60100       -2.45500
O         14.57300        7.84700       -1.82900
O         15.55100        7.54800       -3.80100
H         14.63600        7.71300       -4.02900
C         17.30800        3.42600       -2.59100
O         18.12300        3.33700       -3.50200
N         17.06800        2.37300       -1.81600
H         17.55000        1.51400       -2.01700
H         16.40000        2.43300       -1.05900
