58
0 1
H          6.36700        6.88200        0.36700
C          5.61300        7.19300        1.08900
H          6.10000        7.60400        1.97300
H          4.99900        6.34200        1.37500
C          4.74100        8.25700        0.47000
O          4.93900        8.63000       -0.68200
N          3.77300        8.74800        1.23900
H          3.70500        8.38000        2.18400
C          2.84400        9.82200        0.84100
H          3.04300       10.10300       -0.19400
C          1.38600        9.32600        0.92600
H          1.05900        9.32200        1.96700
H          0.76500       10.05100        0.39800
C          1.12700        7.93900        0.30500
H          0.07700        7.87900        0.02000
H          1.72100        7.82200       -0.60200
C          1.40600        6.77000        1.25300
O          1.69200        6.85500        2.44300
O          1.30800        5.55200        0.68700
H          1.50200        4.91900        1.37900
C          3.00400       11.09800        1.69000
O          2.46800       12.15000        1.35500
N          3.71900       11.00200        2.81200
H          4.18800       10.11900        2.98200
C          3.78500       11.99900        3.88400
H          2.77200       12.32900        4.11700
C          4.38000       11.32800        5.14100
H          5.36500       10.92100        4.90600
H          4.51500       12.09700        5.90400
C          3.49500       10.21600        5.75400
H          3.94000        9.89500        6.69500
H          2.51700       10.64100        5.98100
C          3.31000        8.97300        4.87700
O          4.17600        8.56500        4.11800
N          2.14900        8.35900        4.87800
H          2.03300        7.60900        4.20200
H          1.40200        8.65800        5.47600
C          4.57100       13.26200        3.48400
O          4.41700       14.30600        4.10900
N          5.36500       13.18200        2.41400
H          5.47500       12.26700        1.99400
C          6.01400       14.31100        1.74200
H          6.45200       14.94600        2.51400
C          7.16800       13.78400        0.85900
H          7.76900       14.64800        0.57000
H          7.81400       13.13800        1.45600
C          6.77400       13.04900       -0.44300
H          6.03400       13.62900       -0.99400
H          7.66000       12.98500       -1.07400
C          6.25100       11.62300       -0.26200
O          6.14800       11.03300        0.80800
O          5.87400       11.02000       -1.40600
H          5.57200       10.12000       -1.17900
C          5.04600       15.20700        0.93600
O          5.46300       16.21500        0.37900
N          3.76900       14.86300        0.81100
H          3.16300       15.46700        0.28300
H          3.41600       14.01900        1.24100
