58
0 1
H          0.34500        4.18300       -1.73100
C          0.50500        4.17800       -2.80900
H          0.73500        5.18600       -3.15000
H         -0.39100        3.81600       -3.30900
C          1.66200        3.26500       -3.13100
O          2.27600        2.70500       -2.23200
N          1.98600        3.13900       -4.41700
H          1.43100        3.65500       -5.09100
C          3.02800        2.23900       -4.93800
H          2.73200        1.21800       -4.69000
C          3.09000        2.34600       -6.47600
H          3.80400        1.59700       -6.82100
H          2.12000        2.07200       -6.89500
C          3.53000        3.70800       -7.06000
H          4.36300        4.12000       -6.49200
H          3.88700        3.53700       -8.07500
C          2.41600        4.75300       -7.14800
O          1.28400        4.63700       -6.69800
O          2.74400        5.88800       -7.79400
H          1.93800        6.40800       -7.79600
C          4.42300        2.44700       -4.31200
O          5.24100        1.53100       -4.31000
N          4.68400        3.62300       -3.73700
H          3.98900        4.35400       -3.81700
C          5.90300        3.96200       -2.99400
H          6.76500        3.81000       -3.64500
C          5.83400        5.44800       -2.60900
H          5.03300        5.59100       -1.88300
H          6.77300        5.73400       -2.13200
C          5.57900        6.36600       -3.78200
N          4.36500        6.49100       -4.46600
C          4.58500        7.38700       -5.43900
H          3.84000        7.71400       -6.15200
N          5.85800        7.81600       -5.40700
H          6.26400        8.49100       -6.03900
C          6.50200        7.18200       -4.36800
H          7.53500        7.29500       -4.06700
C          6.13700        3.09100       -1.74800
O          7.25500        3.05400       -1.24800
N          5.11900        2.36500       -1.27100
H          4.20700        2.48300       -1.69800
C          5.25100        1.35400       -0.21300
H          5.80300        1.80500        0.61300
C          3.84600        0.98800        0.30300
H          3.93900        0.47900        1.26400
H          3.29200        1.91400        0.47000
C          3.05200        0.07800       -0.65600
H          3.23300        0.37800       -1.68800
H          3.39400       -0.95100       -0.54800
C          1.54400        0.11600       -0.41900
O          0.97200        0.64200        0.52500
O          0.80800       -0.52600       -1.34600
H         -0.09400       -0.41500       -1.04500
C          6.03500        0.09200       -0.64000
O          6.31600       -0.76900        0.18500
N          6.37000       -0.08000       -1.91500
H          6.11900        0.61100       -2.60900
H          6.88600       -0.90600       -2.16500
