57
0 1
H          4.86500        9.13000       -1.34500
C          5.22600        9.21800       -0.32200
H          4.56100        8.68500        0.35500
H          5.26500       10.26900       -0.03900
C          6.61500        8.63300       -0.22700
O          7.55700        9.33300        0.12100
N          6.74800        7.34600       -0.54700
H          5.92600        6.84800       -0.84700
C          8.02100        6.61200       -0.52300
H          8.55500        6.91500        0.38000
C          7.72300        5.09700       -0.41000
H          6.79100        4.96500        0.14300
H          7.56200        4.67200       -1.40200
C          8.78700        4.26900        0.33400
H          8.77700        4.55900        1.38500
H          8.51200        3.21600        0.27700
C         10.21400        4.42000       -0.18300
O         10.78700        3.61600       -0.90400
O         10.84500        5.53200        0.24900
H         11.75400        5.48400       -0.10900
C          8.90800        6.99400       -1.73400
O          9.11600        6.19700       -2.64300
N          9.37100        8.24700       -1.78000
H          9.11100        8.85300       -1.00700
C          9.95100        8.88500       -2.97200
H          9.20500        8.84400       -3.76700
C         10.19700       10.36700       -2.62500
H          9.29100       10.78900       -2.18700
H         10.98000       10.41100       -1.86600
C         10.60500       11.24700       -3.82200
H         11.26900       10.70700       -4.49100
H          9.71100       11.52200       -4.38000
C         11.33300       12.51900       -3.39300
O         12.42800       12.87400       -3.81500
O         10.71000       13.26300       -2.45900
H         11.30500       13.99000       -2.27500
C         11.22000        8.19200       -3.52000
O         11.45800        8.22000       -4.72500
N         12.01900        7.54700       -2.66500
H         11.77800        7.57200       -1.68600
C         13.16700        6.72000       -3.05600
H         13.02100        6.36900       -4.07900
C         14.48900        7.51300       -2.99700
H         14.63500        7.92000       -1.99400
H         15.29800        6.80300       -3.17500
C         14.64000        8.63400       -4.04500
H         15.70300        8.80100       -4.21500
H         14.20300        8.31700       -4.99200
C         14.03800        9.97900       -3.64000
O         13.47800       10.22200       -2.57800
O         14.17200       10.94700       -4.56900
H         13.69700       11.72700       -4.23600
C         13.25000        5.48800       -2.14600
O         13.18400        5.60700       -0.92500
N         13.40500        4.29700       -2.70600
H         13.37600        3.48800       -2.10600
H         13.42300        4.20200       -3.70700
