62
0 1
H          7.21600       12.41900        2.75500
C          7.74100       11.75900        3.44300
H          7.03900       11.06600        3.90300
H          8.22500       12.35400        4.21700
C          8.79500       10.98600        2.68800
O          9.97800       11.10800        2.98100
N          8.36000       10.18800        1.71500
H          7.36400       10.12600        1.57100
C          9.23500        9.40800        0.82400
H         10.21500        9.29200        1.29000
C          8.61200        8.00200        0.68600
H          8.67900        7.52100        1.66300
H          7.55100        8.09100        0.44600
C          9.28200        7.06800       -0.34100
H         10.36400        7.20200       -0.31700
H          9.07400        6.03700       -0.05700
C          8.77600        7.24900       -1.77500
O          7.84300        7.96400       -2.12000
O          9.42600        6.51800       -2.69900
H          9.03400        6.75700       -3.53900
C          9.47600       10.08900       -0.53900
O         10.45500        9.78700       -1.21900
N          8.58300       10.99000       -0.95200
H          7.83600       11.22400       -0.31900
C          8.40700       11.42000       -2.34800
H          8.27900       10.52400       -2.95800
C          7.10900       12.24100       -2.43000
H          7.32400       13.26500       -2.12200
H          6.77500       12.27200       -3.46800
C          5.98500       11.69400       -1.56100
C          5.45100       10.41700       -1.82500
H          5.80500        9.85000       -2.67700
C          4.48600        9.86100       -0.96400
H          4.08800        8.87800       -1.16800
C          4.05500       10.58300        0.16900
O          3.13700       10.05000        1.01500
H          2.71900        9.27000        0.64700
C          4.59600       11.85700        0.43900
H          4.25600       12.40100        1.30800
C          5.56000       12.41200       -0.42500
H          5.97400       13.38900       -0.21300
C          9.59400       12.19900       -2.94100
O          9.75200       12.25700       -4.15500
N         10.44100       12.77100       -2.08400
H         10.20900       12.70000       -1.10100
C         11.70200       13.42900       -2.43500
H         11.51100       14.06400       -3.30200
C         12.13500       14.34700       -1.27000
H         12.93800       14.98500       -1.64300
H         11.30800       15.00600       -1.00000
C         12.66300       13.64500        0.00200
H         13.42100       12.90900       -0.26400
H         13.15300       14.39500        0.62300
C         11.59900       12.97000        0.87000
O         10.38600       13.04200        0.69900
O         12.09700       12.24400        1.88800
H         11.33700       11.84900        2.35700
C         12.83100       12.45800       -2.84600
O         13.91300       12.89700       -3.21600
N         12.64400       11.14600       -2.75900
H         11.76600       10.77300       -2.42300
H         13.39400       10.53800       -3.03600
