58
0 1
H          5.04100        9.16600       -1.72900
C          4.19900        9.77700       -1.41100
H          3.29500        9.17100       -1.38900
H          4.06700       10.60900       -2.10100
C          4.47100       10.32000       -0.02900
O          4.54500       11.52900        0.15400
N          4.60900        9.42100        0.94200
H          4.44600        8.45000        0.69600
C          4.83100        9.73500        2.36300
H          4.61000       10.79300        2.51400
C          3.82400        8.93900        3.22600
H          3.73200        9.45900        4.18000
H          2.84100        8.96700        2.75200
C          4.19400        7.47200        3.54400
H          5.13900        7.44100        4.08600
H          3.43500        7.06200        4.20800
C          4.29100        6.54900        2.33000
O          3.79500        6.75500        1.23100
O          5.00500        5.42600        2.52600
H          4.98200        4.95800        1.68900
C          6.27900        9.52200        2.84600
O          6.60100        9.87500        3.97800
N          7.14600        8.90900        2.03400
H          6.83200        8.67900        1.10200
C          8.46500        8.39700        2.45300
H          8.31600        7.70800        3.28500
C          9.11900        7.62200        1.29600
H          9.34500        8.30600        0.47800
H         10.06600        7.21900        1.65900
C          8.28300        6.44400        0.77100
H          8.94900        5.78300        0.21500
H          7.90800        5.88100        1.62600
S          6.87900        6.84300       -0.31800
C          7.73900        7.49100       -1.77700
H          8.46600        6.75900       -2.13200
H          7.01400        7.68500       -2.56800
H          8.25000        8.42200       -1.52900
C          9.43500        9.48500        2.94900
O         10.33700        9.19700        3.72700
N          9.23900       10.72900        2.51500
H          8.49800       10.86200        1.83800
C          9.97200       11.92100        2.95100
H         11.02900       11.65500        3.00000
C          9.81900       13.02800        1.88400
H         10.53700       13.81300        2.12600
H         10.10200       12.63100        0.90800
C          8.42900       13.69600        1.77800
H          8.08400       14.00000        2.76600
H          8.53400       14.60400        1.18400
C          7.34300       12.84800        1.11200
O          7.51400       11.75100        0.59000
O          6.11400       13.39400        1.15100
H          5.50900       12.76000        0.71900
C          9.58800       12.42400        4.36100
O         10.13700       13.41400        4.82900
N          8.63300       11.81000        5.04900
H          8.15400       11.00700        4.66500
H          8.40700       12.15800        5.96600
