58
0 1
H          3.54400        6.77400        6.56700
C          3.91700        6.50000        5.58200
H          4.92400        6.09400        5.67000
H          3.93300        7.38000        4.94100
C          3.00800        5.45400        4.98100
O          3.41700        4.31100        4.80700
N          1.78300        5.85100        4.63600
H          1.59000        6.84500        4.68600
C          0.69300        4.96800        4.18400
H          0.49700        4.25800        4.98900
C         -0.58400        5.81400        3.97900
H         -1.43900        5.13800        4.01800
H         -0.69100        6.51500        4.80900
C         -0.67100        6.58700        2.64500
H         -0.70300        5.86600        1.83600
H         -1.60800        7.14100        2.62100
C          0.46800        7.58400        2.41500
O          0.95400        8.26200        3.31100
O          0.93100        7.66700        1.13800
H          0.46500        7.06500        0.52800
C          1.00800        4.13100        2.92500
O          0.34200        3.13300        2.66700
N          2.00400        4.54500        2.13900
H          2.48300        5.39600        2.42000
C          2.52000        3.85900        0.94500
H          2.16200        2.82900        0.94300
C          1.99900        4.56100       -0.32600
H          2.44000        5.55500       -0.38500
H          2.33800        4.00200       -1.19900
C          0.50000        4.70000       -0.43500
N         -0.18300        5.88800       -0.71800
C         -1.47900        5.55300       -0.82400
H         -2.27600        6.24600       -1.06500
N         -1.64400        4.24100       -0.58700
H         -2.52300        3.74300       -0.61400
C         -0.40700        3.68500       -0.34900
H         -0.18300        2.64700       -0.14200
C          4.05900        3.78600        0.94100
O          4.65800        3.52500       -0.09700
N          4.71100        4.08300        2.07400
H          4.15300        4.26400        2.90000
C          6.15600        4.34700        2.15800
H          6.64200        3.94000        1.26900
C          6.42700        5.86900        2.18700
H          6.13600        6.27100        3.16000
H          7.50600        6.00500        2.09800
C          5.76400        6.70900        1.07300
H          6.34800        7.61900        0.93500
H          5.78300        6.16000        0.13100
C          4.32800        7.13800        1.38400
O          3.69600        6.81900        2.38200
O          3.73500        7.90300        0.45000
H          2.83400        8.06600        0.76500
C          6.84000        3.67400        3.36500
O          8.06100        3.60400        3.42100
N          6.10200        3.17300        4.35000
H          6.57700        2.73400        5.12100
H          5.09700        3.27600        4.34600
