55
0 1
H          0.58100        6.20100       -1.46400
C          0.79100        6.07600       -2.52400
H         -0.13100        6.18600       -3.09500
H          1.21700        5.09200       -2.70500
C          1.77100        7.13600       -2.96900
O          1.45700        7.93800       -3.83800
N          2.95900        7.13600       -2.37000
H          3.15600        6.41300       -1.69400
C          4.06800        8.04500       -2.69100
H          3.96900        8.34800       -3.73200
C          4.02000        9.29400       -1.78400
H          3.94700        8.97100       -0.74500
H          4.95500        9.84600       -1.88600
C          2.86500       10.26800       -2.08100
H          1.90800        9.76200       -1.96500
H          2.89500       11.07600       -1.35000
C          2.93500       10.89600       -3.47300
O          3.86800       10.79600       -4.25800
O          1.87600       11.66100       -3.80100
H          2.04500       11.94600       -4.69900
C          5.42200        7.32600       -2.52900
O          5.48700        6.34100       -1.78700
N          6.50900        7.79800       -3.17600
C          6.54100        8.84900       -4.18400
H          6.56000        9.82500       -3.69500
H          5.69500        8.78800       -4.86900
C          7.83900        8.63100       -4.95600
H          8.21400        9.55900       -5.38900
H          7.68400        7.87800       -5.73100
C          8.77800        8.08200       -3.88300
H          9.19100        8.91500       -3.31200
H          9.57900        7.48300       -4.31600
C          7.84900        7.23400       -3.00400
H          7.84000        6.21100       -3.38100
C          8.28900        7.23300       -1.53300
O          8.32300        8.27300       -0.87700
N          8.62400        6.05300       -1.01300
H          8.55300        5.24400       -1.62100
C          8.84100        5.78400        0.41300
H          8.13000        6.39300        0.97300
C          8.51700        4.30500        0.71600
H          9.21900        3.65400        0.19100
H          8.65900        4.14700        1.78600
C          7.06900        3.88400        0.38300
H          6.82600        3.00600        0.98100
H          6.37900        4.67800        0.67100
C          6.81800        3.51600       -1.08100
O          7.62300        3.61800       -2.00000
O          5.59000        3.02500       -1.33600
H          5.57300        2.87800       -2.28200
C         10.24300        6.20800        0.91100
O         10.92200        5.47300        1.61800
N         10.71900        7.38500        0.53000
H         11.63300        7.66100        0.84700
H         10.13500        7.99800       -0.02300
