55
0 1
H          4.92900       17.58000        4.45100
C          4.12700       16.99500        4.00600
H          4.20600       17.03300        2.92000
H          3.16300       17.39500        4.31400
C          4.24100       15.56000        4.45900
O          4.40600       14.66300        3.63900
N          4.16300       15.33700        5.76800
H          4.00500       16.12600        6.38000
C          4.18900       14.01900        6.41600
H          3.68800       13.31000        5.76000
C          5.64900       13.57500        6.66300
H          6.22500       14.42100        7.04300
H          5.66200       12.80400        7.43500
C          6.36300       12.99400        5.43300
H          6.49900       13.75900        4.67100
H          7.35600       12.65900        5.73300
C          5.61400       11.79300        4.86100
O          5.63100       10.68800        5.38700
O          4.86200       12.04700        3.76000
H          4.79800       13.00100        3.57300
C          3.41300       14.04600        7.74900
O          3.23500       15.12700        8.31000
N          2.98900       12.88500        8.29700
C          2.99700       11.57200        7.66200
H          3.95400       11.08000        7.84600
H          2.80200       11.62300        6.59100
C          1.87500       10.79200        8.34000
H          2.05100        9.71600        8.30600
H          0.91900       11.04400        7.87800
C          1.91700       11.33100        9.76800
H          2.69600       10.80700       10.32500
H          0.95500       11.22100       10.26900
C          2.29600       12.80800        9.59300
H          1.38500       13.40600        9.53400
C          3.11500       13.29500       10.80200
O          2.55400       13.53600       11.86600
N          4.43600       13.42400       10.65300
H          4.82500       13.23900        9.74100
C          5.36000       14.00100       11.63000
H          4.81700       14.71400       12.25100
C          5.97400       12.89900       12.51900
H          6.34100       12.09300       11.88200
H          6.83200       13.31100       13.05200
C          5.01100       12.31000       13.56500
H          4.14300       11.87400       13.07400
H          5.52100       11.50600       14.09600
C          4.54500       13.33200       14.60100
O          4.98200       14.47000       14.72700
O          3.61200       12.88300       15.46100
H          3.39800       13.63500       16.01400
C          6.46500       14.78300       10.90500
O          6.79700       14.49500        9.75800
N          7.06400       15.76400       11.56600
H          7.79100       16.28100       11.10000
H          6.78000       15.98500       12.50800
