58
0 1
H          4.95200       11.78700       -2.54500
C          6.02100       11.57200       -2.56500
H          6.29700       11.22900       -3.56000
H          6.25800       10.80800       -1.82700
C          6.77800       12.83600       -2.24200
O          6.17900       13.87100       -1.98000
N          8.10700       12.77800       -2.29400
H          8.54200       11.89700       -2.54700
C          8.97900       13.92900       -2.00800
H          8.70000       14.30600       -1.02200
C         10.45300       13.47700       -1.92600
H         10.99800       14.26400       -1.40200
H         10.52200       12.58000       -1.30800
C         11.19100       13.23200       -3.26100
H         11.11700       14.11500       -3.89600
H         12.24900       13.09000       -3.04100
C         10.72600       12.01000       -4.05100
O          9.92700       11.16600       -3.66800
O         11.26200       11.89800       -5.28000
H         10.90500       11.09000       -5.65100
C          8.78800       15.10000       -2.99200
O          9.09000       16.23900       -2.65600
N          8.25600       14.83100       -4.18900
H          7.98800       13.87600       -4.37400
C          7.85000       15.84300       -5.17300
H          8.69000       16.50900       -5.37500
C          7.49200       15.08000       -6.46300
H          8.38700       14.58200       -6.83800
H          6.78200       14.30100       -6.19300
C          6.88800       15.91700       -7.60700
H          6.12200       16.59000       -7.23000
H          7.67600       16.51800       -8.06200
C          6.21200       15.05100       -8.66800
O          5.60400       14.02700       -8.39000
N          6.25100       15.43800       -9.92300
H          5.76800       14.85100      -10.58000
H          6.70700       16.29200      -10.18400
C          6.68300       16.71500       -4.66300
O          6.55700       17.86800       -5.06200
N          5.84000       16.17300       -3.78100
H          6.00000       15.21300       -3.49300
C          4.68700       16.83900       -3.17200
H          4.38700       17.67400       -3.80800
C          3.50500       15.84600       -3.10600
H          3.80200       14.94600       -2.56600
H          2.69700       16.31400       -2.54200
C          2.92900       15.46300       -4.48400
H          1.98100       14.94800       -4.33200
H          2.71800       16.37600       -5.04200
C          3.81000       14.55000       -5.34200
O          4.65800       13.77000       -4.92400
O          3.58500       14.66700       -6.66800
H          4.24100       14.13300       -7.14400
C          5.01200       17.45300       -1.79200
O          4.12700       17.95400       -1.10800
N          6.26400       17.43800       -1.34700
H          7.00100       17.04500       -1.91200
H          6.45500       17.84500       -0.44700
