62
0 1
H          0.03500        6.64900       -5.79700
C          0.97000        6.09100       -5.78300
H          0.75500        5.02400       -5.73000
H          1.56000        6.38700       -4.91800
C          1.74300        6.37900       -7.04600
O          2.04000        5.47400       -7.81300
N          2.11100        7.64100       -7.26000
H          1.83500        8.34200       -6.58000
C          2.80200        8.08700       -8.48000
H          2.18200        7.83000       -9.34000
C          2.99200        9.61700       -8.46000
H          3.56800        9.91100       -7.58000
H          3.58300        9.88400       -9.33800
C          1.68600       10.43400       -8.52800
H          1.93100       11.43500       -8.88500
H          1.00800        9.98600       -9.25400
C          0.95700       10.59600       -7.19400
O          1.28000       10.07900       -6.13200
O         -0.14100       11.37300       -7.24400
H         -0.49200       11.39800       -6.35300
C          4.16100        7.39300       -8.69800
O          4.58700        7.23200       -9.83700
N          4.81600        6.93400       -7.62600
H          4.38600        7.06100       -6.72500
C          6.06700        6.16400       -7.67300
H          6.76700        6.67900       -8.33300
C          6.66800        6.13400       -6.25700
H          7.68100        5.73500       -6.32000
H          6.74800        7.15300       -5.87700
C          5.87600        5.28800       -5.27300
C          6.13200        3.90600       -5.18900
H          6.91600        3.46200       -5.79100
C          5.34800        3.08900       -4.35600
H          5.52700        2.02500       -4.31600
C          4.30700        3.65700       -3.59500
O          3.50500        2.85300       -2.85200
H          3.55900        1.94400       -3.16800
C          4.07100        5.04700       -3.64700
H          3.28000        5.46700       -3.04500
C          4.85700        5.86300       -4.48500
H          4.67700        6.92800       -4.52000
C          5.90100        4.72900       -8.22300
O          6.89800        4.05600       -8.47000
N          4.66300        4.24900       -8.39000
H          3.88600        4.85400       -8.15500
C          4.32100        2.88700       -8.82700
H          5.20400        2.44500       -9.29000
C          3.96500        2.01700       -7.60100
H          3.78700        0.99400       -7.93600
H          4.82000        1.99700       -6.92600
C          2.72300        2.51000       -6.83600
H          2.91200        3.51000       -6.45100
H          1.87100        2.55500       -7.51400
C          2.34200        1.64300       -5.64000
O          3.09200        0.90800       -5.00800
O          1.06700        1.78300       -5.22700
H          0.97000        1.19200       -4.48100
C          3.23000        2.87800       -9.92000
O          2.57900        1.86700      -10.15500
N          2.99000        3.99500      -10.59900
H          2.26800        3.98100      -11.29900
H          3.52600        4.82700      -10.40800
