65
0 1
H         14.74800       10.33600       -5.00300
C         15.45300       11.11900       -5.28100
H         15.07000       11.66200       -6.14300
H         16.41600       10.67200       -5.52000
C         15.61300       12.07000       -4.11900
O         14.99000       11.88400       -3.08100
N         16.44600       13.09500       -4.29600
H         16.89100       13.19400       -5.19400
C         16.68700       14.13600       -3.28800
H         16.73600       13.65200       -2.31200
C         18.04300       14.82700       -3.53700
H         18.03400       15.27500       -4.53200
H         18.17000       15.63100       -2.80900
C         19.25500       13.88100       -3.43700
H         19.13800       13.05500       -4.13700
H         20.14900       14.43100       -3.72900
C         19.49800       13.31200       -2.03800
O         19.01200       13.72700       -0.99300
O         20.35200       12.27300       -1.99900
H         20.42200       12.02200       -1.07700
C         15.51800       15.14000       -3.22200
O         15.62100       16.27900       -3.67700
N         14.39400       14.70200       -2.65200
H         14.40400       13.75000       -2.30400
C         13.15600       15.47100       -2.45500
H         12.76300       15.76900       -3.42700
C         12.13900       14.54000       -1.77600
H         11.20600       15.08700       -1.62900
H         11.92500       13.70800       -2.44800
C         12.58000       13.98700       -0.45100
C         13.17300       12.78500       -0.26600
H         13.37800       12.06700       -1.05300
N         13.51600       12.63500        1.06300
H         13.99500       11.82300        1.42100
C         13.16700       13.74200        1.80600
C         13.32100       14.07000        3.16100
H         13.79300       13.37700        3.84000
C         12.84600       15.31000        3.62200
H         12.95000       15.58000        4.66400
C         12.22800       16.20000        2.72400
H         11.85800       17.15200        3.08100
C         12.08100       15.85900        1.36500
H         11.60200       16.55300        0.68800
C         12.55100       14.62300        0.86700
C         13.33300       16.76000       -1.63100
O         12.46900       17.63100       -1.67200
N         14.44600       16.90300       -0.90600
H         15.07800       16.11300       -0.88700
C         14.79500       18.09900       -0.12800
H         13.94500       18.34100        0.51300
C         16.02000       17.83000        0.77300
H         16.93000       17.89200        0.17200
H         16.06600       18.63600        1.50700
C         16.02400       16.49400        1.53700
H         16.57300       16.62500        2.47000
H         15.00700       16.19400        1.78400
C         16.70900       15.39400        0.73100
O         16.17200       14.74500       -0.15500
O         18.02100       15.22700        0.98600
H         18.34800       14.58900        0.32500
C         15.07600       19.34100       -1.00200
O         15.18400       20.44700       -0.48700
N         15.24200       19.19800       -2.31400
H         15.16800       18.28400       -2.73800
H         15.41200       20.02100       -2.86600
