57
0 1
H         10.50800        3.27900        6.88000
C         10.39200        4.34800        7.04900
H         11.03000        4.67200        7.86900
H          9.35100        4.56300        7.29000
C         10.76400        5.09400        5.79100
O          9.91900        5.75300        5.20000
N         12.03200        4.99000        5.38300
H         12.65500        4.44800        5.95900
C         12.60200        5.63900        4.18700
H         13.65400        5.79700        4.42800
C         12.63600        4.70200        2.94500
H         12.50500        5.27000        2.02700
H         13.65100        4.30400        2.89100
C         11.70500        3.47200        2.91600
H         11.93900        2.87800        2.03300
H         11.90200        2.84500        3.78600
C         10.22100        3.81300        2.85800
O          9.72900        4.67300        2.13700
O          9.44800        3.07400        3.67900
H          8.57100        3.50300        3.70100
C         12.09200        7.09100        3.99300
O         12.23300        7.88700        4.92100
N         11.49800        7.46800        2.85300
H         11.38900        6.78800        2.10900
C         11.03700        8.84800        2.59800
H         11.83700        9.50700        2.93800
C         10.88300        9.11400        1.08400
H         10.71800       10.18500        0.95500
H         11.82100        8.88100        0.57800
C          9.72200        8.38100        0.38600
H          8.81900        8.43500        0.99400
H          9.51000        8.88700       -0.55600
C         10.03000        6.92400        0.05800
O         11.12500        6.38700        0.17100
O          8.98000        6.20500       -0.38000
H          9.30300        5.30600       -0.45400
C          9.79200        9.29200        3.40200
O          9.30500       10.39900        3.19000
N          9.28400        8.47000        4.32600
H          9.69800        7.55000        4.42500
C          8.18800        8.80600        5.24300
H          8.10500        9.89300        5.26100
C          6.83500        8.28200        4.70700
H          6.05700        8.78200        5.28500
H          6.70400        8.60900        3.67400
C          6.56200        6.76400        4.81400
H          6.82100        6.41300        5.81200
H          5.49000        6.61900        4.68500
C          7.24900        5.85500        3.79100
O          7.29700        4.63200        3.88200
O          7.82900        6.45500        2.73100
H          8.35200        5.76200        2.29700
C          8.49200        8.41400        6.70500
O          7.59400        8.29800        7.53100
N          9.75400        8.20200        7.06400
H         10.49400        8.27800        6.38000
H          9.94300        7.95700        8.02000
