57
0 1
H          2.41000        8.25100        2.75900
C          2.59400        7.39800        2.10600
H          2.43900        7.70700        1.07400
H          1.91500        6.58700        2.35900
C          4.02000        6.94000        2.29000
O          4.71700        7.42400        3.17300
N          4.46500        5.99900        1.45700
H          3.83100        5.68300        0.74100
C          5.75900        5.30800        1.59300
H          5.83900        4.97100        2.62700
C          5.71700        4.06500        0.67500
H          4.85200        3.46200        0.95500
H          5.56600        4.40100       -0.35200
C          6.95600        3.14700        0.69000
H          6.77300        2.30700        0.02100
H          7.82200        3.68000        0.29900
C          7.30200        2.57900        2.06600
O          6.60300        2.64900        3.06500
O          8.47500        1.92100        2.12800
H          8.55100        1.63500        3.03900
C          7.00100        6.19100        1.32600
O          8.11900        5.80100        1.65600
N          6.83300        7.38200        0.74500
H          5.88000        7.64100        0.51200
C          7.90700        8.25600        0.23600
H          8.48000        7.66600       -0.48000
C          7.28400        9.43100       -0.55000
H          8.09400       10.02000       -0.98300
H          6.70400        9.03900       -1.38700
C          6.40500       10.37700        0.29500
H          6.92400       10.63800        1.21400
H          6.25400       11.29900       -0.26500
C          5.02000        9.80100        0.59800
O          4.48100        8.94000       -0.09000
O          4.41500       10.29200        1.70400
H          5.06700       10.58400        2.36300
C          8.94900        8.77100        1.26100
O          9.85700        9.49200        0.86300
N          8.85600        8.43200        2.55200
H          8.11900        7.79500        2.82200
C          9.91500        8.72000        3.53700
H         10.41900        9.64200        3.24600
C          9.32800        8.94800        4.94500
H          8.93100        8.00800        5.33300
H         10.14900        9.24100        5.60100
C          8.25700       10.05600        5.02400
H          8.09500       10.29500        6.07500
H          8.62000       10.95200        4.52000
C          6.90700        9.65400        4.43400
O          6.27600       10.32500        3.62200
O          6.48600        8.42400        4.79200
H          5.69400        8.18500        4.27100
C         11.00500        7.62800        3.58200
O         12.02900        7.80300        4.23000
N         10.82200        6.48800        2.92400
H         11.54800        5.79300        2.96600
H          9.96700        6.32300        2.41000
