60
0 1
H          3.61100       12.42500       -7.81500
C          3.14000       11.45000       -7.69700
H          2.59300       11.19700       -8.60500
H          2.45400       11.46900       -6.85200
C          4.20100       10.40500       -7.45400
O          4.29400        9.43600       -8.20000
N          5.00000       10.60500       -6.40700
H          4.89000       11.47000       -5.89100
C          6.12800        9.74100       -6.02200
H          6.18100        8.91700       -6.73500
C          7.44600       10.53800       -6.15700
H          8.22800        9.82000       -6.41000
H          7.36700       11.22400       -7.00200
C          7.94900       11.32100       -4.92200
H          8.19100       10.62000       -4.12300
H          8.88000       11.81600       -5.19600
C          7.00900       12.38600       -4.35100
O          5.84800       12.59000       -4.68200
O          7.54800       13.13700       -3.37300
H          6.86900       13.75600       -3.10500
C          5.98300        9.08800       -4.63400
O          6.79600        8.24300       -4.27100
N          4.97700        9.47800       -3.84100
H          4.31800       10.14200       -4.21800
C          4.80200        9.03900       -2.44500
H          5.72700        9.23500       -1.90100
C          3.66300        9.84800       -1.79300
H          2.73300        9.61200       -2.31300
H          3.55600        9.51300       -0.75900
C          3.85000       11.37800       -1.79300
H          3.92000       11.73500       -2.82000
C          2.63700       12.04300       -1.14300
H          1.73200       11.76800       -1.68400
H          2.54500       11.72300       -0.10400
H          2.74700       13.12700       -1.17600
C          5.10100       11.81800       -1.02900
H          5.15300       12.90600       -1.00200
H          5.06800       11.43600       -0.00800
H          5.99500       11.44200       -1.52300
C          4.53900        7.52800       -2.29600
O          4.78100        6.96300       -1.23500
N          4.07800        6.87200       -3.36200
H          3.86700        7.42400       -4.18300
C          3.91300        5.41900       -3.46500
H          3.45800        5.07600       -2.53500
C          2.92500        5.09900       -4.61000
H          2.63300        4.05400       -4.49800
H          2.01900        5.69500       -4.48400
C          3.45200        5.27200       -6.05300
H          4.41200        4.77000       -6.16500
H          2.75400        4.77400       -6.72700
C          3.58900        6.71700       -6.53800
O          3.28700        7.71800       -5.89800
O          4.10300        6.83400       -7.77700
H          4.14100        7.78700       -7.98900
C          5.23900        4.63800       -3.61300
O          5.22400        3.41700       -3.70900
N          6.39200        5.29300       -3.68100
H          7.23900        4.75800       -3.77200
H          6.41700        6.30200       -3.62600
