62
0 1
H          7.88700        8.36300        0.14000
C          7.83500        8.23200        1.22000
H          6.92700        8.69900        1.59900
H          8.70400        8.68700        1.69200
C          7.80200        6.75800        1.54500
O          6.85300        6.28000        2.15200
N          8.84400        6.03100        1.14800
H          9.59500        6.50100        0.66900
C          8.98600        4.59200        1.40000
H          8.00600        4.13400        1.25200
C          9.92700        3.99300        0.32700
H          9.37900        4.00100       -0.61700
H         10.78100        4.66100        0.20400
C         10.50100        2.57100        0.51800
H         10.83400        2.20100       -0.45200
H         11.39000        2.63500        1.14500
C          9.58400        1.51800        1.14100
O          8.46100        1.71500        1.59200
O         10.13700        0.29000        1.19000
H          9.56200       -0.28000        1.73000
C          9.38100        4.30100        2.86400
O         10.52400        3.96400        3.16000
N          8.42600        4.43600        3.79100
H          7.52900        4.80500        3.49500
C          8.59400        4.05200        5.20200
H          9.61800        4.28000        5.50100
C          7.66100        4.89800        6.08300
H          7.90500        4.70200        7.12800
H          7.87200        5.95300        5.90300
C          6.17600        4.65000        5.88300
C          5.52600        3.62500        6.59900
H          6.08100        3.01200        7.29700
C          4.14700        3.40000        6.41400
H          3.63700        2.62100        6.96100
C          3.41600        4.19300        5.50600
O          2.09000        3.96600        5.32300
H          1.70100        4.58700        4.70700
C          4.06600        5.22300        4.79300
H          3.51200        5.83800        4.10100
C          5.44000        5.45400        4.99100
H          5.92800        6.25800        4.45900
C          8.38800        2.54600        5.46300
O          8.77500        2.04900        6.51800
N          7.79800        1.80000        4.52000
H          7.57500        2.24100        3.63800
C          7.61300        0.34600        4.60500
H          7.43000        0.08000        5.64600
C          6.38300       -0.08100        3.77600
H          6.48000        0.32000        2.76600
H          6.36000       -1.16900        3.69200
C          5.04100        0.39400        4.36700
H          5.06700        1.47400        4.50600
H          4.26000        0.17000        3.64200
C          4.63100       -0.26300        5.69100
O          3.70500        0.10600        6.39400
O          5.35100       -1.32700        6.10100
H          4.93900       -1.59200        6.92500
C          8.89600       -0.39700        4.19100
O          8.95700       -1.07200        3.16600
N          9.97200       -0.22900        4.94800
H         10.83100       -0.68000        4.68200
H          9.91500        0.37300        5.75900
