62
0 1
H          2.28200       11.24300       -1.41200
C          2.45100       10.97300       -0.37000
H          2.00300       10.00300       -0.16300
H          2.00800       11.72600        0.27900
C          3.93700       10.90700       -0.11200
O          4.73200       11.18100       -0.99800
N          4.31300       10.50700        1.09900
H          3.58400       10.25500        1.75900
C          5.70400       10.43200        1.57700
H          6.17000       11.40000        1.38600
C          5.68700       10.20100        3.10500
H          6.67000       10.46600        3.49800
H          4.96500       10.88000        3.56200
C          5.37900        8.75500        3.55600
H          6.18300        8.09500        3.23300
H          5.35900        8.72500        4.64500
C          4.04500        8.21300        3.04700
O          3.02200        8.87800        3.07200
N          4.00100        7.01400        2.51400
H          4.85200        6.47500        2.37000
H          3.10300        6.68100        2.21900
C          6.58700        9.37000        0.88600
O          7.77100        9.26800        1.20500
N          6.01200        8.52900        0.01800
H          5.05800        8.72700       -0.23700
C          6.61800        7.30100       -0.51000
H          5.80300        6.73100       -0.95400
C          7.60100        7.65000       -1.65400
H          7.09500        8.32800       -2.34300
H          8.44900        8.19300       -1.23400
C          8.13700        6.45400       -2.46900
H          8.65400        5.75500       -1.81500
C          7.02300        5.70100       -3.20100
H          6.35700        5.22400       -2.48400
H          6.45600        6.38800       -3.82900
H          7.45900        4.92200       -3.82700
C          9.13500        6.95500       -3.51200
H          8.64900        7.64700       -4.20000
H          9.96000        7.46300       -3.01100
H          9.54000        6.11200       -4.07200
C          7.16100        6.41100        0.63100
O          6.37300        5.88800        1.41900
N          8.48000        6.25500        0.75000
H          9.07800        6.75200        0.09900
C          9.16500        5.48200        1.79500
H          8.57400        4.59700        2.03600
C         10.52100        5.03000        1.23200
H         11.04900        4.44300        1.98400
H         10.35000        4.38700        0.36800
C         11.39200        6.18500        0.79900
N         11.19900        6.94800       -0.35400
C         12.12800        7.91400       -0.31500
H         12.24500        8.68100       -1.07000
N         12.87800        7.80000        0.79400
H         13.63100        8.42000        1.05800
C         12.42400        6.71700        1.51500
H         12.77900        6.36800        2.47500
C          9.36300        6.25000        3.11400
O          9.80700        5.67300        4.09900
N          9.06900        7.54200        3.17800
H          9.21900        8.02500        4.04600
H          8.72200        8.02600        2.35900
