64
0 1
H          8.70400       14.04000        1.41700
C          8.11000       14.10400        2.32700
H          7.05100       14.12300        2.07600
H          8.37300       15.00900        2.87200
C          8.39700       12.90400        3.19700
O          8.85000       13.05500        4.32600
N          8.13300       11.71000        2.67200
H          7.80500       11.66800        1.71800
C          8.38100       10.41900        3.32500
H          9.18700       10.53100        4.05100
C          7.11500        9.91900        4.06000
H          6.28200        9.92900        3.35500
H          7.26700        8.88200        4.36400
C          6.70300       10.71200        5.31300
H          6.59900       11.77000        5.07400
H          5.72700       10.35300        5.63800
C          7.67500       10.53700        6.47800
O          7.52300        9.67300        7.32900
N          8.72100       11.32700        6.56200
H          8.85800       12.06100        5.87000
H          9.34000       11.19300        7.33900
C          8.84400        9.36700        2.30500
O          8.61400        9.49200        1.10300
N          9.47900        8.31400        2.81400
H          9.60800        8.29400        3.81600
C          9.73500        7.04700        2.11900
H         10.35500        7.24800        1.24400
C         10.50600        6.09400        3.06600
H         10.18200        5.06500        2.90600
H         11.56300        6.14100        2.80200
C         10.36100        6.44200        4.54300
C         11.42200        7.07400        5.22300
H         12.38800        7.17600        4.74800
C         11.21100        7.63200        6.49800
H         12.00500        8.15000        7.01500
C          9.93100        7.57600        7.08800
O          9.68500        8.24300        8.24200
H          8.79800        8.63800        8.20100
C          8.88100        6.90800        6.42600
H          7.90000        6.87900        6.87700
C          9.10000        6.32900        5.16300
H          8.27500        5.86400        4.63900
C          8.42500        6.40100        1.63100
O          7.40200        6.45300        2.31100
N          8.46800        5.75800        0.46200
H          9.34000        5.72500       -0.04600
C          7.32300        5.09600       -0.17300
H          6.68900        4.66700        0.60400
C          6.50100        6.14900       -0.94300
H          6.10600        6.87400       -0.23000
H          7.16200        6.68100       -1.63000
C          5.32900        5.58400       -1.75500
H          4.80100        6.42300       -2.20900
H          5.72000        4.96600       -2.56400
S          4.13100        4.61000       -0.80000
C          2.91700        4.26200       -2.10000
H          3.39300        3.71000       -2.91000
H          2.10500        3.66500       -1.68500
H          2.51400        5.19800       -2.48500
C          7.80700        3.95000       -1.07400
O          8.89500        4.00900       -1.63700
N          7.02100        2.89300       -1.22900
H          7.34400        2.14000       -1.81400
H          6.11900        2.86700       -0.78000
