60
0 1
H          3.66800        2.75800        0.66000
C          3.78900        2.56700       -0.40600
H          2.90300        2.06800       -0.79500
H          4.66200        1.93800       -0.56800
C          3.98200        3.87900       -1.12600
O          4.01100        4.93100       -0.49700
N          4.07800        3.81800       -2.45200
H          3.98300        2.90100       -2.87600
C          4.28600        4.95200       -3.37300
H          5.06100        5.57900       -2.92800
C          4.86400        4.42100       -4.70700
H          5.31100        5.26000       -5.24200
H          5.67600        3.73200       -4.46800
C          3.90000        3.70500       -5.67900
H          3.41300        4.44900       -6.30900
H          4.47900        3.06000       -6.33900
C          2.83300        2.86300       -4.98900
O          3.11000        1.85700       -4.35700
N          1.58800        3.28200       -5.01300
H          0.90900        2.74200       -4.50800
H          1.37400        4.18700       -5.40100
C          3.04700        5.86900       -3.52600
O          2.62200        6.20800       -4.63400
N          2.43000        6.24400       -2.40300
H          2.83900        5.91300       -1.53500
C          1.22100        7.07600       -2.32600
H          0.69500        7.02800       -3.28000
C          0.28500        6.51700       -1.24000
H          0.77300        6.60900       -0.26800
H         -0.62600        7.11600       -1.21300
C         -0.09700        5.04300       -1.45300
H          0.80100        4.43300       -1.35400
H         -0.77700        4.74900       -0.65300
S         -0.88000        4.63400       -3.04100
C         -2.42300        5.57900       -2.92100
H         -2.20300        6.64600       -2.88600
H         -3.04100        5.37300       -3.79500
H         -2.96400        5.28700       -2.02100
C          1.50900        8.56500       -2.05900
O          0.62500        9.39000       -2.26800
N          2.72300        8.90600       -1.60500
H          3.38800        8.14900       -1.52800
C          3.25600       10.25600       -1.31500
H          4.24800       10.10500       -0.88700
C          3.46700       11.06000       -2.61800
H          2.53900       11.08600       -3.19100
H          3.71200       12.08800       -2.35000
C          4.61200       10.54000       -3.50700
H          4.72400       11.21000       -4.35900
H          5.54300       10.55800       -2.93900
C          4.38200        9.12800       -4.03000
O          4.99100        8.17100       -3.58100
N          3.43600        8.92600       -4.92100
H          2.87600        9.68400       -5.26100
H          3.22300        7.95600       -5.13500
C          2.51500       11.09900       -0.25000
O          3.12400       11.96400        0.36600
N          1.24000       10.87300        0.03100
H          0.71600       10.22400       -0.53900
H          0.79700       11.44000        0.73400
