60
0 1
H          8.91800        5.82400        3.15400
C          9.85800        6.33200        3.36900
H         10.69200        5.66100        3.17000
H          9.87700        6.64100        4.41200
C          9.97200        7.55100        2.48700
O          9.07200        7.84000        1.70900
N         11.09500        8.25800        2.58800
H         11.80300        7.91600        3.23000
C         11.41100        9.48300        1.83300
H         10.49700       10.07900        1.81800
C         12.46300       10.31100        2.61200
H         12.44100       11.33200        2.23000
H         12.14500       10.35800        3.65500
C         13.93200        9.83800        2.58200
H         14.41100       10.21700        1.68000
H         14.46100       10.27800        3.42700
C         14.10300        8.32400        2.64100
O         13.72400        7.66700        3.59700
N         14.62300        7.70400        1.60700
H         14.83700        8.22200        0.77000
H         14.72300        6.70800        1.67900
C         11.75600        9.22000        0.34700
O         12.78300        9.66400       -0.16800
N         10.90500        8.46700       -0.35600
H         10.07200        8.14100        0.12800
C         11.09400        8.06400       -1.75900
H         12.07000        7.58400       -1.84200
C         10.02800        7.02400       -2.14100
H         10.25800        6.64800       -3.13800
H         10.08300        6.18400       -1.44600
C          8.59400        7.57700       -2.13500
H          8.35600        7.91600       -1.12600
H          8.53200        8.43700       -2.80200
S          7.32200        6.38300       -2.63100
C          7.65600        6.25300       -4.40900
H          7.60000        7.24100       -4.86600
H          8.64700        5.83200       -4.57300
H          6.91200        5.60200       -4.86900
C         11.10200        9.23700       -2.75900
O         11.51500        9.06300       -3.90000
N         10.66900       10.42900       -2.33800
H         10.33700       10.50600       -1.38500
C         10.76500       11.68200       -3.09500
H         10.53000       11.48800       -4.14200
C          9.72500       12.65600       -2.52400
H          9.71900       13.56400       -3.12800
H          8.73500       12.20400       -2.59700
C          9.97900       13.02500       -1.08200
N          9.81400       12.17600        0.01700
C         10.14800       12.90500        1.09200
H         10.10800       12.54500        2.11200
N         10.53300       14.13900        0.72600
H         10.83100       14.87200        1.35500
C         10.43700       14.23200       -0.64400
H         10.67600       15.08500       -1.26500
C         12.16700       12.32100       -3.06700
O         12.39600       13.33100       -3.72100
N         13.11800       11.79000       -2.30900
H         12.92100       10.97600       -1.74100
H         14.02600       12.22100       -2.31000
