66
0 1
H         11.85000       10.25000       -0.97200
C         11.15100       11.04100       -0.70200
H         10.79800       11.54500       -1.60000
H         11.64800       11.76100       -0.05500
C          9.97800       10.44100        0.03300
O          9.92100        9.23300        0.22800
N          9.02000       11.28000        0.41400
H          9.15000       12.26200        0.18900
C          7.83000       10.94500        1.21400
H          8.17000       10.29300        2.02000
C          7.29100       12.23000        1.88700
H          6.63300       11.91700        2.69800
H          8.12100       12.76700        2.34900
C          6.48700       13.21100        1.00400
H          5.66500       12.68500        0.52100
H          6.04000       13.96000        1.65800
C          7.28300       13.96200       -0.06300
O          8.50100       13.95600       -0.12100
N          6.62000       14.64500       -0.96900
H          5.61700       14.67900       -0.95500
H          7.17500       15.14100       -1.64400
C          6.73100       10.14700        0.47100
O          5.58200       10.12800        0.90600
N          7.05500        9.49300       -0.65000
H          8.03000        9.46500       -0.90600
C          6.09800        8.78100       -1.51700
H          5.35000        9.49100       -1.87300
C          6.86400        8.22500       -2.72900
H          6.13400        7.88800       -3.46600
H          7.44200        9.02700       -3.19100
C          7.77600        7.07100       -2.42600
C          9.08100        7.16100       -2.08200
H          9.64700        8.08100       -2.01400
N          9.56400        5.91000       -1.76000
H         10.47300        5.75400       -1.34200
C          8.60200        4.93700       -1.90700
C          8.60100        3.55200       -1.68600
H          9.49700        3.05500       -1.34600
C          7.41800        2.82600       -1.90700
H          7.39800        1.75800       -1.74300
C          6.25600        3.49500       -2.33300
H          5.34400        2.93600       -2.49400
C          6.26800        4.88800       -2.54300
H          5.36300        5.39100       -2.85400
C          7.44200        5.64700       -2.33800
C          5.33400        7.64600       -0.80700
O          4.21200        7.33000       -1.19000
N          5.93500        7.05100        0.22700
H          6.85400        7.38900        0.47500
C          5.36900        5.98200        1.05300
H          4.62100        5.46300        0.45200
C          6.46500        4.94500        1.39000
H          5.96600        4.08500        1.83900
H          6.92200        4.59300        0.46600
C          7.57800        5.38800        2.36200
H          7.15000        5.94000        3.19800
H          8.04900        4.49200        2.76700
C          8.67900        6.22200        1.70800
O          9.73700        5.78200        1.28200
O          8.41200        7.54200        1.62000
H          9.17400        7.95400        1.17300
C          4.62300        6.50100        2.30200
O          4.28400        5.73000        3.19100
N          4.38300        7.80100        2.42900
H          4.67300        8.44900        1.70900
H          3.89500        8.11800        3.24900
