59
0 1
H          0.42100       13.69500        7.21100
C          1.46400       13.45700        7.00800
H          1.71500       12.49600        7.45700
H          2.11000       14.22900        7.42100
C          1.67500       13.36900        5.51700
O          0.72900       13.51200        4.74800
N          2.91700       13.11300        5.11100
H          3.60600       12.95000        5.83800
C          3.32800       12.94900        3.70400
H          2.42700       12.92000        3.08900
C          4.13700       14.17400        3.23500
H          4.36000       14.04100        2.17600
H          3.51400       15.06500        3.31700
C          5.47100       14.40500        3.97300
H          6.03000       13.47000        4.03000
H          6.06200       15.11000        3.38700
C          5.31700       14.99200        5.37500
O          5.76900       14.43500        6.36000
N          4.64800       16.11200        5.54200
H          4.57600       16.44900        6.48600
H          4.23900       16.58900        4.76000
C          4.03800       11.60800        3.42500
O          4.47100       11.34400        2.30600
N          4.11800       10.73300        4.42800
H          3.70200       11.01100        5.31100
C          4.70500        9.38900        4.37900
H          5.72100        9.46000        3.98800
C          4.76300        8.82500        5.81500
H          3.76800        8.87000        6.26300
H          5.04900        7.77400        5.75800
C          5.77700        9.52800        6.74400
H          5.80000        9.00100        7.69800
H          6.76800        9.44000        6.29700
C          5.48900       11.00400        7.03100
O          4.35500       11.45600        7.10300
N          6.50300       11.82900        7.14500
H          6.27100       12.82000        7.18100
H          7.44900       11.50800        7.07900
C          3.93700        8.43400        3.44100
O          4.44600        7.37800        3.08200
N          2.73400        8.82600        3.01100
H          2.37400        9.67500        3.42500
C          1.91800        8.15800        1.99100
H          1.78200        7.11800        2.28900
C          0.53100        8.83400        1.89900
H          0.63100        9.79800        1.39600
H         -0.09700        8.20400        1.26600
C         -0.21000        9.04500        3.23400
H         -1.28000        9.09300        3.03200
H         -0.02900        8.20200        3.90100
C          0.19600       10.34600        3.92600
O          1.11200       10.43600        4.73200
O         -0.46800       11.44600        3.51800
H         -0.10000       12.21100        3.99800
C          2.56500        8.15300        0.58800
O          2.11800        7.42900       -0.29200
N          3.58600        8.96500        0.32900
H          3.99600        8.93600       -0.58900
H          3.94700        9.57800        1.04600
