62
0 1
H         -0.98300        0.18400        0.91700
C         -0.11400       -0.44200        0.72500
H         -0.31800       -1.10400       -0.11600
H          0.11500       -1.03700        1.60800
C          1.07000        0.43200        0.39000
O          1.62500        0.32900       -0.69700
N          1.45400        1.29900        1.32300
H          0.96300        1.28800        2.20700
C          2.61500        2.19800        1.25500
H          3.35800        1.78800        0.56900
C          2.19700        3.60700        0.77600
H          1.52600        4.02400        1.52900
H          3.08200        4.24500        0.74600
C          1.47700        3.70900       -0.58300
H          0.67400        2.97800       -0.65100
H          1.01600        4.69500       -0.64400
C          2.40700        3.57200       -1.78500
O          2.95600        4.53700       -2.29200
N          2.65500        2.38300       -2.28000
H          2.22800        1.55600       -1.86300
H          3.20000        2.33700       -3.12000
C          3.24400        2.29600        2.65800
O          2.53400        2.13800        3.65000
N          4.54900        2.57700        2.75400
H          5.07900        2.66900        1.89900
C          5.24900        2.76300        4.04600
H          4.51300        3.12000        4.76900
C          5.76800        1.40800        4.57500
H          5.95600        1.54500        5.64100
H          4.97500        0.66300        4.48800
C          7.06400        0.84700        3.95000
H          7.85900        1.58800        4.02700
C          7.49900       -0.39600        4.72700
H          8.43500       -0.77800        4.31900
H          7.65900       -0.13800        5.77400
H          6.73400       -1.16900        4.66000
C          6.90600        0.44300        2.48300
H          7.81500       -0.05000        2.13700
H          6.06400       -0.23900        2.36900
H          6.75400        1.32300        1.86400
C          6.34900        3.84100        4.02700
O          6.71800        4.37600        5.06700
N          6.83600        4.19600        2.84000
H          6.51000        3.68100        2.03400
C          7.77100        5.28300        2.52300
H          8.60100        5.25400        3.23100
C          8.32100        5.00000        1.11100
H          8.88200        5.85900        0.74000
H          9.01600        4.16200        1.17500
C          7.24200        4.62300        0.12000
N          6.67900        3.34600        0.00600
C          5.70800        3.45600       -0.90900
H          5.08300        2.63900       -1.24300
N          5.59200        4.72800       -1.32100
H          4.85300        5.06300       -1.93900
C          6.54900        5.48300       -0.68100
H          6.70000        6.55300       -0.74700
C          7.13700        6.68600        2.65300
O          7.25200        7.53000        1.77200
N          6.43000        6.95900        3.74000
H          6.01000        7.86900        3.82600
H          6.35700        6.26400        4.47100
