62
0 1
H          9.68700       16.17000       -2.37900
C         10.26300       15.75600       -1.55100
H          9.85800       16.12100       -0.60900
H         11.30500       16.05500       -1.64900
C         10.16800       14.25000       -1.59000
O          9.50800       13.69600       -2.46200
N         10.81400       13.58500       -0.63300
H         11.33200       14.12000        0.04600
C         10.85700       12.11900       -0.51200
H         10.91900       11.72700       -1.52700
C         12.15400       11.71200        0.22500
H         12.98500       12.27300       -0.20700
H         12.07500       11.99200        1.27600
C         12.50500       10.21400        0.12900
H         13.49100       10.05100        0.56300
H         11.79400        9.62800        0.70900
C         12.52400        9.70600       -1.30900
O         13.03400       10.34500       -2.21600
N         11.91500        8.57900       -1.58800
H         11.33800        8.12100       -0.89000
H         11.75300        8.38800       -2.56300
C          9.56200       11.52900        0.09200
O          9.58600       10.76300        1.05000
N          8.40300       11.91500       -0.44700
H          8.46000       12.52400       -1.25500
C          7.06500       11.48900        0.00000
H          7.08200       11.40100        1.08800
C          6.03400       12.57500       -0.37800
H          5.94700       12.60000       -1.46500
H          5.06300       12.28300        0.02500
C          6.35600       14.00000        0.11700
H          7.29600       14.33700       -0.32100
C          5.25600       14.96100       -0.33500
H          4.30000       14.66800        0.09900
H          5.49900       15.97600       -0.01900
H          5.17700       14.94300       -1.42200
C          6.46600       14.08300        1.64000
H          6.63000       15.11600        1.94300
H          5.55000       13.71400        2.10200
H          7.31000       13.48700        1.98700
C          6.67300       10.08700       -0.52500
O          5.52100        9.84000       -0.87200
N          7.65200        9.19200       -0.67700
H          8.56000        9.42300       -0.28900
C          7.55400        7.92600       -1.41600
H          6.63600        7.41500       -1.12200
C          7.48400        8.22100       -2.93200
H          7.60500        7.29700       -3.49700
H          6.48900        8.60700       -3.16000
C          8.49400        9.22900       -3.42500
N          9.82600        8.96600       -3.74600
C         10.37900       10.16100       -4.01600
H         11.42400       10.31500       -4.26000
N          9.47300       11.14400       -3.87100
H          9.66700       12.14100       -3.90700
C          8.27500       10.57200       -3.51300
H          7.35100       11.08300       -3.28200
C          8.73100        6.99800       -1.07000
O          9.67900        7.38000       -0.38900
N          8.68800        5.74800       -1.51100
H          9.45700        5.13900       -1.28600
H          7.91800        5.43500       -2.07900
