57
0 1
H          1.46900        5.65000       -0.22300
C          1.17500        6.54200       -0.77400
H          0.61100        7.20700       -0.12200
H          0.55900        6.25900       -1.62600
C          2.41200        7.25300       -1.26600
O          2.60300        7.38100       -2.47100
N          3.24500        7.70500       -0.33200
H          3.02300        7.51400        0.63500
C          4.52900        8.37900       -0.56300
H          4.93800        8.02500       -1.50400
C          4.32000        9.90800       -0.63400
H          3.65700       10.21600        0.17600
H          5.27600       10.40800       -0.47300
C          3.74300       10.40900       -1.97100
H          2.76900        9.95400       -2.14600
H          3.59300       11.48600       -1.90800
C          4.67100       10.13200       -3.15100
O          5.88100       10.27000       -3.06400
N          4.16700        9.69900       -4.28100
H          3.19200        9.47200       -4.35100
H          4.83500        9.46800       -5.01200
C          5.52000        8.03400        0.57300
O          5.05700        7.78700        1.68900
N          6.85200        8.05800        0.34600
C          7.83300        7.95000        1.41400
H          8.10800        6.90300        1.54800
H          7.45900        8.36300        2.35200
C          9.03600        8.75100        0.92900
H          9.96000        8.42500        1.40800
H          8.86400        9.81500        1.09800
C          9.03400        8.45500       -0.56900
H          9.54800        7.50800       -0.74400
H          9.51400        9.25300       -1.13600
C          7.54300        8.33100       -0.92100
H          7.20700        9.29200       -1.30200
C          7.32300        7.23800       -1.98000
O          7.47200        6.05400       -1.69100
N          6.96300        7.62700       -3.20500
H          6.81400        8.62000       -3.37100
C          6.64900        6.70600       -4.30400
H          7.34900        5.87000       -4.27100
C          5.22400        6.15600       -4.10300
H          5.17200        5.65200       -3.13700
H          4.52900        6.99300       -4.09600
C          4.78600        5.16800       -5.19500
H          4.69400        5.69800       -6.14300
H          5.54700        4.39400       -5.29800
C          3.44800        4.47900       -4.91900
O          3.18500        3.39700       -5.41000
N          2.54800        5.03800       -4.13900
H          1.70100        4.51800       -4.01400
H          2.71300        5.93100       -3.68600
C          6.78300        7.40400       -5.66700
O          6.23000        8.47700       -5.88700
N          7.47500        6.79100       -6.61800
H          7.55000        7.24200       -7.51500
H          7.91600        5.90400       -6.43800
