59
0 1
H         12.11000        6.28500        9.34800
C         13.16800        6.41100        9.12200
H         13.76800        5.83000        9.81900
H         13.43500        7.46400        9.19500
C         13.43600        5.93300        7.71500
O         13.93700        6.69100        6.89200
N         13.09000        4.67700        7.44100
H         12.61300        4.15900        8.16900
C         13.16900        4.06700        6.10600
H         12.98800        4.86400        5.39400
C         14.59400        3.55000        5.81200
H         15.28500        4.38100        5.96200
H         14.85300        2.77200        6.53100
C         14.82900        3.01000        4.38400
H         15.88200        3.12900        4.12900
H         14.61900        1.94000        4.37900
C         13.98100        3.68000        3.30100
O         14.23000        4.79200        2.86300
N         12.91800        3.03400        2.87700
H         12.65300        2.17200        3.32800
H         12.30700        3.47400        2.19700
C         12.02200        3.07000        5.87500
O         12.21300        1.91900        5.48500
N         10.80300        3.53800        6.14000
H         10.74700        4.48600        6.49200
C          9.54400        2.84400        5.85000
H          9.74000        1.78300        5.68700
C          8.60500        2.98100        7.06400
H          8.54100        4.02500        7.37700
H          7.60700        2.67000        6.74900
C          8.99700        2.09000        8.26000
H          8.12800        2.00100        8.91100
H          9.23100        1.08700        7.90100
C         10.15800        2.58200        9.13100
O         10.78800        3.62600        9.00500
O         10.48000        1.74900       10.13900
H         11.20000        2.16800       10.61200
C          8.88200        3.36000        4.55400
O          7.98100        2.72300        4.01700
N          9.33200        4.50900        4.04300
H         10.03600        5.00900        4.57100
C          8.92800        5.09500        2.76800
H          7.83700        5.10600        2.74000
C          9.41200        6.56000        2.69400
H          9.05500        6.96800        1.74700
H          8.92900        7.13600        3.48500
C         10.94000        6.80500        2.75600
H         11.47000        6.08600        2.13400
H         11.13100        7.79100        2.33200
C         11.55700        6.80200        4.15900
O         10.92500        6.51000        5.16600
N         12.83000        7.09400        4.27400
H         13.42600        7.09200        3.46200
H         13.23300        7.07000        5.20800
C          9.41200        4.26200        1.56600
O         10.54100        3.78200        1.52600
N          8.58500        4.11600        0.53900
H          7.65500        4.49600        0.57700
H          8.90000        3.57100       -0.24700
