61
0 1
H         10.39200        8.74600        4.70900
C          9.94600        7.80800        5.03800
H         10.71200        7.17400        5.48100
H          9.49400        7.29700        4.19100
C          8.88200        8.09400        6.07000
O          8.93500        7.55900        7.17300
N          7.92900        8.95300        5.71400
H          8.07500        9.46000        4.85000
C          6.85800        9.43300        6.60200
H          6.99600        9.00500        7.59500
C          6.94500       10.96700        6.73600
H          6.65500       11.43800        5.79500
H          6.21400       11.27200        7.48700
C          8.32000       11.50700        7.18000
H          8.16900       12.49400        7.61800
H          8.73000       10.86100        7.95700
C          9.34700       11.66200        6.05600
O          9.11300       11.39100        4.88800
N         10.54800       12.09600        6.36500
H         11.19100       12.19700        5.59900
H         10.78600       12.32300        7.31200
C          5.44300        9.02800        6.14800
O          4.49500        9.15800        6.92000
N          5.27800        8.53700        4.91300
H          6.10300        8.39100        4.35500
C          3.97100        8.24100        4.30200
H          3.36300        9.14200        4.39900
C          4.14800        7.97500        2.79100
H          3.15800        8.07000        2.34300
H          4.76900        8.76100        2.36000
C          4.70900        6.59600        2.37800
H          4.11200        5.80400        2.82900
C          4.61500        6.45300        0.85800
H          5.21300        7.22100        0.36700
H          4.97300        5.46900        0.55600
H          3.57500        6.55000        0.54400
C          6.17600        6.39500        2.76700
H          6.78500        7.21400        2.38500
H          6.27200        6.32800        3.84900
H          6.54000        5.45600        2.34900
C          3.16600        7.12300        4.99600
O          1.96400        7.01300        4.78400
N          3.81300        6.31400        5.83700
H          4.81400        6.44100        5.91800
C          3.18300        5.31800        6.70800
H          2.41000        4.81400        6.12500
C          4.22500        4.25100        7.11300
H          3.67500        3.41500        7.54800
H          4.71900        3.87100        6.21700
C          5.29400        4.67800        8.14300
H          4.82400        5.17300        8.99300
H          5.77200        3.77700        8.52500
C          6.40400        5.57700        7.59800
O          6.51100        5.95200        6.43600
O          7.30500        5.97000        8.51800
H          7.95900        6.52500        8.05200
C          2.47000        5.92100        7.94000
O          1.88300        5.19000        8.72900
N          2.53100        7.22800        8.16800
H          3.04000        7.83700        7.54200
H          2.05500        7.59400        8.97500
