59
0 1
H          2.60900        7.42300       -2.38900
C          3.67300        7.56300       -2.57000
H          3.99600        6.92600       -3.39100
H          4.22900        7.31500       -1.66800
C          3.92700        9.00600       -2.92900
O          4.30900        9.30900       -4.05500
N          3.72300        9.90600       -1.97000
H          3.41400        9.57200       -1.06200
C          3.83500       11.35900       -2.15900
H          3.15000       11.65700       -2.95400
C          3.42700       12.09200       -0.86500
H          4.04600       11.75400       -0.03200
H          3.63300       13.15300       -1.01300
C          1.93400       11.96900       -0.49800
H          1.68500       12.79800        0.16600
H          1.32800       12.07900       -1.39700
C          1.53400       10.67900        0.22200
O          2.30900        9.76300        0.43700
N          0.28900       10.54600        0.61900
H         -0.38400       11.27400        0.46800
H          0.07100        9.68900        1.09700
C          5.23900       11.81200       -2.60000
O          5.36200       12.81700       -3.29400
N          6.28600       11.04700       -2.27200
H          6.10800       10.19700       -1.75000
C          7.66700       11.25400       -2.73800
H          7.97300       12.27700       -2.51500
C          8.57700       10.28000       -1.97400
H          9.61500       10.46300       -2.25300
H          8.48100       10.46200       -0.90300
C          8.24100        8.83500       -2.25100
N          7.15300        8.14400       -1.71100
C          7.15500        6.94200       -2.30900
H          6.42300        6.16400       -2.13200
N          8.15400        6.85900       -3.20200
H          8.26500        6.10400       -3.87800
C          8.84900        8.04700       -3.18400
H          9.67500        8.33400       -3.82100
C          7.85200       11.05300       -4.25400
O          8.91600       11.36100       -4.78100
N          6.84200       10.52700       -4.95200
H          6.01200       10.24900       -4.44000
C          6.84900       10.26700       -6.39500
H          7.58200       10.93200       -6.85500
C          7.31000        8.82000       -6.65600
H          7.41600        8.67900       -7.73200
H          8.29400        8.67700       -6.20600
C          6.34900        7.75600       -6.09700
H          6.28800        7.85000       -5.01500
H          5.34900        7.89700       -6.50800
C          6.81700        6.34700       -6.43200
O          7.36000        5.60200       -5.62200
O          6.61300        5.98600       -7.72400
H          6.18300        6.68600       -8.21400
C          5.49700       10.60500       -7.05900
O          5.14200       10.03900       -8.08700
N          4.70800       11.50200       -6.47700
H          3.81900       11.70500       -6.90100
H          5.00300       11.95700       -5.62500
