57
0 1
H          8.28800       12.59200       -0.42500
C          7.45600       13.28200       -0.29500
H          7.40100       13.95900       -1.14500
H          7.59900       13.85500        0.62000
C          6.16800       12.50100       -0.19100
O          5.47500       12.58600        0.81600
N          5.84600       11.74000       -1.23500
H          6.47800       11.71600       -2.02200
C          4.65100       10.89200       -1.33100
H          4.32400       10.62700       -0.32800
C          3.52000       11.65600       -2.04700
H          3.91400       12.08900       -2.96800
H          2.74700       10.94700       -2.33200
C          2.85900       12.77300       -1.22400
H          3.60700       13.49300       -0.89500
H          2.15300       13.30200       -1.86400
C          2.08900       12.23400       -0.02200
O          0.93300       11.85700       -0.11900
N          2.69200       12.15700        1.14100
H          3.67000       12.42600        1.22500
H          2.15300       11.81200        1.91300
C          4.97600        9.60200       -2.10900
O          5.57900        9.70200       -3.17900
N          4.58500        8.40300       -1.62900
C          3.84000        8.15300       -0.40200
H          2.98100        8.81800       -0.30600
H          4.50400        8.27300        0.45500
C          3.37200        6.70100       -0.49100
H          2.42300        6.64900       -1.02600
H          3.28000        6.24500        0.49600
C          4.47300        6.04200       -1.32200
H          4.11600        5.14300       -1.82600
H          5.31800        5.80000       -0.67500
C          4.88900        7.13800       -2.31000
H          5.96100        7.06500       -2.49500
C          4.16900        6.98700       -3.66000
O          4.69500        6.35100       -4.56600
N          2.99100        7.59800       -3.81600
H          2.58500        8.05800       -3.00900
C          2.23300        7.66800       -5.07100
H          2.42000        6.73700       -5.60900
C          0.71700        7.70600       -4.76700
H          0.20500        7.42500       -5.68900
H          0.47800        6.93600       -4.03200
C          0.10500        9.04900       -4.31000
H          0.39800        9.84300       -4.99400
H         -0.97900        8.95600       -4.37900
C          0.42800        9.48700       -2.88100
O          1.18300        8.87100       -2.14700
N         -0.11600       10.59800       -2.44000
H          0.13900       10.89900       -1.50000
H         -0.74400       11.13000       -3.01000
C          2.70100        8.79500       -6.01800
O          2.02700        9.11300       -6.99100
N          3.82500        9.45200       -5.75400
H          4.39700        9.19200       -4.96300
H          4.11700       10.17300       -6.39100
