59
0 1
H          6.22600       12.90600       -4.92200
C          6.64000       12.67900       -3.94100
H          7.50900       13.31000       -3.75800
H          6.93500       11.63200       -3.89400
C          5.60000       12.95300       -2.88200
O          5.82500       13.77400       -1.99900
N          4.46500       12.26100       -2.97100
H          4.38400       11.57900       -3.70700
C          3.37900       12.32600       -1.98700
H          3.30800       13.35500       -1.62600
C          2.04000       11.99500       -2.68600
H          1.70900       12.88900       -3.21600
H          2.22100       11.22300       -3.43600
C          0.87600       11.49000       -1.80600
H         -0.02000       11.42900       -2.42400
H          1.10700       10.47600       -1.47700
C          0.54300       12.32200       -0.56700
O          1.10700       13.36900       -0.29300
N         -0.35100       11.83800        0.26600
H         -0.81300       10.96900        0.08100
H         -0.52900       12.34700        1.13000
C          3.66300       11.42900       -0.77000
O          3.84600       10.22200       -0.90100
N          3.62200       12.03000        0.41900
H          3.52100       13.03800        0.40900
C          3.72000       11.38400        1.73700
H          3.30900       10.37800        1.64800
C          5.20400       11.25200        2.15500
H          5.25500       10.59600        3.02500
H          5.75500       10.76100        1.35100
C          5.91800       12.57200        2.51600
H          5.42100       13.04900        3.36100
H          6.94300       12.34800        2.80900
C          5.94800       13.54500        1.34500
O          5.13800       14.44900        1.18100
O          6.86800       13.25900        0.40400
H          6.61000       13.74900       -0.39600
C          2.88200       12.11100        2.81400
O          3.00200       11.80900        3.99900
N          2.06800       13.10000        2.42900
H          1.93300       13.26200        1.43700
C          1.30200       13.94900        3.34500
H          1.90300       14.12000        4.24000
C          1.02600       15.31500        2.69400
H          0.33800       15.19100        1.85600
H          0.55600       15.96700        3.43300
C          2.30600       15.98700        2.18500
H          3.05700       15.96900        2.97600
H          2.68700       15.41300        1.34000
S          2.09200       17.70000        1.64300
C          3.74500       17.97300        0.95200
H          3.81200       18.98500        0.55400
H          4.49500       17.83800        1.73200
H          3.92900       17.25600        0.15100
C         -0.01100       13.28000        3.77100
O         -0.73100       12.71500        2.95200
N         -0.37200       13.36700        5.04400
H         -1.23500       12.93300        5.32400
H          0.23000       13.82000        5.71100
