64
0 1
H          8.06300       17.04600        4.86100
C          7.72300       17.94600        4.35200
H          8.29900       18.80200        4.70000
H          6.66600       18.11100        4.55500
C          7.92300       17.79300        2.86400
O          6.98600       17.95700        2.09100
N          9.13600       17.42300        2.45800
H          9.83400       17.20800        3.16400
C          9.53700       17.27600        1.05100
H          9.35000       18.23600        0.56600
C         11.05600       17.01000        0.96500
H         11.36100       17.25800       -0.05200
H         11.58200       17.69800        1.62800
C         11.54400       15.57000        1.23700
H         10.99500       14.86900        0.60800
H         12.58900       15.51500        0.93200
C         11.47300       15.08900        2.68800
O         11.03500       15.76800        3.60300
N         11.90400       13.87600        2.94900
H         11.76100       13.53800        3.88900
H         12.25100       13.28400        2.21900
C          8.71400       16.23400        0.26900
O          8.70300       16.25500       -0.95800
N          7.97800       15.36900        0.97400
H          8.06800       15.40600        1.97700
C          6.99500       14.41900        0.43500
H          7.51100       13.73900       -0.24300
C          6.41000       13.60200        1.60300
H          5.62700       14.19100        2.08400
H          5.94000       12.70300        1.20400
C          7.42900       13.20800        2.65800
C          8.31600       12.14100        2.41900
H          8.23000       11.56000        1.51100
C          9.32800       11.84700        3.35300
H         10.02100       11.03800        3.17600
C          9.45800       12.62500        4.52200
O         10.48400       12.38600        5.38000
H         10.35700       12.83500        6.21800
C          8.55800       13.68400        4.77000
H          8.66500       14.28800        5.65800
C          7.54200       13.96900        3.83900
H          6.85700       14.78700        4.02300
C          5.85100       15.08300       -0.35800
O          5.15600       14.39900       -1.10400
N          5.66100       16.40000       -0.20600
H          6.22700       16.88300        0.48200
C          4.74700       17.22100       -1.00900
H          4.54900       16.67900       -1.93400
C          3.40900       17.37600       -0.26000
H          3.12900       16.41200        0.16600
H          3.54300       18.07400        0.56800
C          2.24300       17.86100       -1.13500
H          1.34400       17.87600       -0.51800
H          2.43400       18.88800       -1.44500
S          1.88200       16.88600       -2.62800
C          1.57500       15.24500       -1.91900
H          0.79500       15.31000       -1.16100
H          1.25600       14.56500       -2.71000
H          2.49200       14.85800       -1.47200
C          5.41000       18.54800       -1.43500
O          4.79300       19.60400       -1.48700
N          6.71200       18.53400       -1.70000
H          7.23200       17.66900       -1.64900
H          7.15100       19.39900       -1.96700
