64
0 1
H          8.15800        8.33900       -8.85300
C          7.20100        8.74200       -8.52700
H          6.39100        8.17800       -8.98700
H          7.12900        9.79100       -8.81300
C          7.09600        8.62900       -7.02600
O          6.93700        9.63000       -6.33600
N          7.21800        7.41000       -6.50700
H          7.37300        6.63800       -7.15000
C          7.01300        7.06300       -5.09100
H          6.04200        7.47000       -4.80600
C          6.91500        5.53000       -4.94600
H          6.57500        5.32100       -3.93100
H          6.14600        5.14500       -5.61800
C          8.22800        4.74900       -5.16200
H          9.05500        5.28800       -4.70700
H          8.13800        3.79500       -4.64300
C          8.57400        4.44100       -6.62000
O          7.96000        4.91000       -7.56500
N          9.58300        3.63700       -6.86900
H         10.16700        3.29200       -6.12000
H          9.77000        3.44600       -7.83600
C          8.02300        7.67900       -4.09400
O          7.94400        7.39600       -2.90200
N          8.95400        8.52100       -4.55800
H          8.96100        8.70100       -5.55000
C          9.91900        9.25600       -3.72600
H          9.72800        9.02500       -2.67800
C         11.34900        8.78500       -4.04800
H         11.66400        9.25600       -4.97900
H         12.01900        9.14000       -3.26500
C         11.52000        7.28100       -4.18200
C         11.86000        6.72100       -5.42900
H         12.02600        7.36200       -6.28400
C         11.96700        5.32600       -5.57000
H         12.21400        4.89100       -6.52700
C         11.72700        4.48500       -4.46400
O         11.73900        3.13700       -4.63200
H         11.85500        2.68100       -3.79600
C         11.40400        5.04400       -3.20800
H         11.20200        4.40500       -2.36200
C         11.30100        6.44200       -3.07200
H         11.02100        6.87400       -2.11900
C          9.79700       10.78800       -3.85500
O         10.59800       11.51200       -3.27000
N          8.83600       11.29000       -4.64300
H          8.22300       10.63800       -5.11600
C          8.73300       12.71500       -5.00200
H          9.03900       13.30800       -4.13900
C          9.71600       13.02800       -6.14900
H          9.61900       14.08700       -6.39600
H         10.73600       12.87900       -5.79800
C          9.49500       12.21900       -7.44100
H          8.42700       12.18600       -7.65800
H          9.97100       12.76200       -8.25800
S         10.14400       10.51600       -7.47200
C         11.93000       10.83200       -7.43100
H         12.20400       11.30000       -6.48500
H         12.46700        9.88800       -7.52700
H         12.20600       11.48800       -8.25600
C          7.31300       13.19700       -5.35800
O          7.08400       14.39300       -5.48200
N          6.33100       12.32100       -5.52600
H          6.51400       11.32800       -5.50100
H          5.41600       12.67400       -5.74900
