64
0 1
H          1.24800       11.90800       -5.91600
C          0.80400       10.92000       -5.81100
H          1.55100       10.15500       -6.01500
H         -0.02500       10.81700       -6.51100
C          0.28600       10.75100       -4.40300
O         -0.90500       10.53000       -4.21000
N          1.18300       10.85600       -3.42400
H          2.13400       11.08400       -3.67500
C          0.89600       10.77400       -1.98600
H         -0.11900       11.13000       -1.80900
C          1.01400        9.31800       -1.48800
H          1.93700        8.87600       -1.86700
H          1.06900        9.33000       -0.40100
C         -0.17300        8.41800       -1.85100
H         -0.28000        8.34800       -2.93300
H          0.01900        7.41500       -1.47200
C         -1.46500        8.92500       -1.21800
O         -1.67600        8.82900       -0.02100
N         -2.34400        9.53900       -1.97600
H         -2.10300        9.76000       -2.93900
H         -3.18300        9.86400       -1.53400
C          1.82200       11.69300       -1.17500
O          2.84100       12.17100       -1.67400
N          1.46300       11.93100        0.09000
H          0.65500       11.44800        0.45100
C          2.13700       12.87200        0.99500
H          2.17900       13.84400        0.50100
C          1.28300       13.02400        2.26400
H          1.68300       13.85200        2.85100
H          0.26700       13.30200        1.97900
C          1.23100       11.78900        3.14800
C          2.21000       11.60600        4.14500
H          2.99100       12.34500        4.27500
C          2.18500       10.46000        4.96200
H          2.94700       10.31800        5.71300
C          1.17700        9.48900        4.77900
O          1.17100        8.36400        5.54200
H          1.60700        8.51100        6.38400
C          0.19500        9.67200        3.78400
H         -0.57400        8.92500        3.65000
C          0.21900       10.82200        2.97200
H         -0.54500       10.95600        2.21800
C          3.59200       12.50200        1.35200
O          4.30700       13.32800        1.91200
N          4.04500       11.28600        1.03200
H          3.38800       10.61700        0.65100
C          5.42000       10.81300        1.25300
H          5.70000       11.04200        2.28200
C          5.47100        9.28600        1.05700
H          5.49200        9.07100       -0.01200
H          6.39400        8.90100        1.49200
C          4.29600        8.54500        1.64400
N          3.05700        8.40900        1.01700
C          2.26500        7.78000        1.89700
H          1.22000        7.55200        1.72800
N          2.93700        7.52300        3.03100
H          2.52100        7.14000        3.87100
C          4.22100        8.00500        2.89400
H          5.00700        8.00100        3.63600
C          6.46700       11.48800        0.35000
O          7.66100       11.33700        0.57500
N          6.06200       12.21200       -0.68800
H          6.75900       12.65600       -1.26100
H          5.07600       12.32200       -0.87100
