60
0 1
H          9.85400       12.77400       -1.20100
C          9.98100       12.14500       -2.08000
H         10.82800       12.50100       -2.66600
H          9.08000       12.17100       -2.69000
C         10.24900       10.72300       -1.64600
O         11.29400       10.17200       -1.96200
N          9.29900       10.13700       -0.91900
H          8.45000       10.65300       -0.74400
C          9.32300        8.74700       -0.44600
H          9.83500        8.12900       -1.18600
C         10.07700        8.64200        0.89600
H          9.77200        9.44400        1.57000
H          9.79500        7.70200        1.36300
C         11.60800        8.64900        0.72700
H         11.86700        8.14000       -0.20200
H         11.95700        9.67900        0.65500
C         12.37200        7.93900        1.84400
O         11.82900        7.36100        2.77400
N         13.68500        7.94500        1.79400
H         14.16200        7.44600        2.52300
H         14.16000        8.38400        1.02600
C          7.90000        8.18300       -0.30700
O          6.92000        8.92700       -0.30800
N          7.80500        6.86200       -0.14300
H          8.67700        6.34000       -0.15300
C          6.58100        6.05700       -0.01700
H          6.06700        6.07800       -0.97900
C          6.99300        4.59500        0.26700
H          6.08300        3.99500        0.30800
H          7.58100        4.22200       -0.57300
C          7.77900        4.35100        1.58000
H          7.23100        4.77900        2.41900
H          7.83900        3.27600        1.75000
C          9.21200        4.89300        1.57400
O          9.86200        5.00700        0.54700
N          9.73000        5.32800        2.69700
H          9.14700        5.45900        3.51200
H         10.63000        5.79400        2.64400
C          5.55600        6.54000        1.03100
O          4.37200        6.25400        0.88500
N          5.98000        7.26200        2.07400
H          6.97100        7.42700        2.16800
C          5.10800        7.81900        3.12300
H          4.10200        7.41200        3.00300
C          5.62400        7.36500        4.49700
H          4.95100        7.72300        5.27600
H          5.61900        6.27500        4.53300
C          7.02100        7.84500        4.79200
N          8.19200        7.23200        4.34300
C          9.19800        8.01400        4.76300
H         10.24800        7.81500        4.58600
N          8.72000        9.07800        5.43100
H          9.28000        9.81400        5.83800
C          7.34500        8.99200        5.45200
H          6.64400        9.70000        5.87500
C          4.94400        9.34900        3.03900
O          4.49700        9.98500        3.98600
N          5.32000        9.98300        1.93600
H          5.69400        9.46400        1.15200
H          5.19800       10.97900        1.89300
