60
0 1
H         17.03100       -0.62000       -1.77800
C         17.87400       -0.11800       -2.25000
H         17.90200       -0.35400       -3.31200
H         18.80100       -0.44300       -1.77800
C         17.73000        1.37400       -2.06800
O         18.58500        2.01000       -1.46500
N         16.64700        1.94100       -2.59500
H         15.96100        1.34800       -3.03100
C         16.30500        3.34900       -2.37500
H         17.23100        3.92500       -2.42000
C         15.36700        3.83400       -3.50300
H         15.50500        3.20800       -4.38700
H         14.32800        3.73200       -3.18600
C         15.63600        5.28600       -3.93200
H         16.61900        5.34000       -4.40200
H         14.89300        5.58800       -4.66900
C         15.58000        6.25300       -2.76000
O         14.58100        6.36800       -2.07400
N         16.66600        6.91200       -2.42800
H         17.50900        6.84500       -2.96600
H         16.62600        7.43200       -1.55500
C         15.69500        3.52200       -0.96700
O         14.79500        2.77200       -0.59300
N         16.16400        4.50300       -0.18500
H         16.86300        5.13000       -0.55500
C         15.79900        4.65900        1.23400
H         15.99000        3.70800        1.73500
C         16.69800        5.72400        1.88600
H         16.61700        5.62200        2.96900
H         17.73800        5.53400        1.61800
C         16.35000        7.14800        1.52200
N         16.75000        7.82400        0.36600
C         16.18400        9.04000        0.43900
H         16.28900        9.81500       -0.30900
N         15.45300        9.15400        1.56100
H         14.90400        9.96200        1.82300
C         15.54100        7.96900        2.25400
H         15.05100        7.71200        3.18400
C         14.31800        4.98200        1.49600
O         13.85100        4.78300        2.61300
N         13.57900        5.47200        0.49600
H         14.04100        5.66900       -0.38600
C         12.13300        5.72900        0.57400
H         11.88700        6.00900        1.59900
C         11.76500        6.91500       -0.33500
H         11.95300        6.64200       -1.37300
H         10.70300        7.13700       -0.22300
C         12.56500        8.17600        0.02000
H         12.40300        8.39500        1.07600
H         13.62600        7.97300       -0.12200
S         12.15900        9.66800       -0.92900
C         12.80600        9.19800       -2.55600
H         12.26900        8.32700       -2.93100
H         12.67400       10.02600       -3.25200
H         13.86600        8.95900       -2.47300
C         11.27300        4.49200        0.24800
O         10.05000        4.56600        0.25300
N         11.86300        3.34200       -0.05800
H         11.28300        2.54500       -0.25600
H         12.87200        3.27100       -0.06700
