59
0 1
H         12.54300        4.86000       -1.68200
C         11.53800        4.94100       -1.27200
H         11.50100        4.46700       -0.29200
H         10.82500        4.45800       -1.93700
C         11.17500        6.39900       -1.12700
O         11.96900        7.27300       -1.45700
N          9.98000        6.66200       -0.61000
H          9.42000        5.87300       -0.30800
C          9.44100        7.99800       -0.32200
H          9.81800        8.67800       -1.08700
C          7.90100        8.00600       -0.43000
H          7.46100        7.47300        0.41000
H          7.57600        9.04500       -0.35700
C          7.34400        7.43800       -1.75100
H          6.33100        7.81800       -1.88200
H          7.94400        7.80800       -2.58300
C          7.27000        5.91100       -1.81900
O          7.52700        5.18000       -0.87400
N          6.91700        5.35500       -2.95600
H          6.70300        5.91700       -3.75900
H          6.87400        4.35100       -2.96500
C          9.94600        8.55200        1.02900
O          9.17500        9.05200        1.84400
N         11.25900        8.44900        1.26900
H         11.80900        8.00600        0.54400
C         11.98900        9.11600        2.36000
H         13.01300        8.74800        2.30700
C         12.06300       10.64700        2.10800
H         11.05700       11.03200        1.94200
H         12.45300       11.13900        3.00000
C         12.96900       11.08300        0.93700
H         12.86400       12.15700        0.78700
H         14.00700       10.88200        1.20400
C         12.65100       10.37800       -0.37700
O         11.65800       10.58100       -1.06100
O         13.51700        9.39700       -0.70300
H         13.08700        8.86900       -1.39200
C         11.52300        8.73100        3.78500
O         11.71600        9.49700        4.72700
N         10.96700        7.52600        3.97400
H         10.79800        6.95300        3.15400
C         10.50000        6.99300        5.26800
H          9.93500        7.78700        5.75700
C          9.53200        5.81200        5.04300
H         10.08200        4.94700        4.67000
H          9.11900        5.53900        6.01500
C          8.34200        6.11100        4.11200
H          7.47600        5.57300        4.49900
H          8.10200        7.17500        4.12900
C          8.56200        5.66400        2.66800
O          9.66500        5.64800        2.14100
N          7.50900        5.29100        1.97400
H          7.64400        5.05700        0.99400
H          6.59600        5.31300        2.38300
C         11.63500        6.60700        6.25200
O         11.59100        5.57300        6.90900
N         12.69200        7.39800        6.36600
H         13.42300        7.13600        7.00500
H         12.70300        8.27900        5.86900
