61
0 1
H          6.15400        1.98400        3.85300
C          5.19800        2.39900        3.53900
H          4.48900        2.36300        4.36400
H          4.80800        1.82200        2.70100
C          5.38800        3.83200        3.10400
O          5.11100        4.17200        1.95700
N          5.87900        4.67500        4.01300
H          6.07800        4.31500        4.93300
C          6.05600        6.11900        3.79700
H          5.18600        6.44600        3.22700
C          6.00800        6.86800        5.14600
H          5.26300        6.40100        5.79200
H          6.97600        6.78000        5.64300
C          5.64600        8.36100        4.99400
H          5.71000        8.83800        5.97200
H          6.36100        8.85900        4.34100
C          4.23300        8.58100        4.45800
O          3.30000        7.86600        4.77800
N          4.00500        9.55800        3.61000
H          3.05700        9.65800        3.30200
H          4.75300       10.13900        3.24200
C          7.28600        6.47600        2.92900
O          8.06000        7.37100        3.25500
N          7.45600        5.80100        1.78600
H          6.79900        5.05700        1.58100
C          8.38200        6.21700        0.71900
H          9.38800        6.28700        1.13700
C          8.35400        5.11900       -0.36400
H          8.65700        4.17600        0.09300
H          7.32500        5.00600       -0.71000
C          9.24300        5.37200       -1.59900
H          8.92300        6.28200       -2.10400
C         10.72400        5.49100       -1.23400
H         11.05300        4.60400       -0.69400
H         11.31700        5.60300       -2.14200
H         10.88400        6.37500       -0.61700
C          9.08900        4.21000       -2.58000
H          9.68500        4.40000       -3.47200
H          9.41800        3.27900       -2.11800
H          8.04300        4.11500       -2.87400
C          8.01600        7.60800        0.15500
O          8.85500        8.32100       -0.38900
N          6.75400        8.00700        0.32500
H          6.14000        7.35800        0.79600
C          6.18700        9.31000       -0.00800
H          6.58500        9.62100       -0.97500
C          4.65100        9.18100       -0.13500
H          4.21200        9.01600        0.84900
H          4.27000       10.13500       -0.50100
C          4.16200        8.07400       -1.09900
H          3.09800        8.23400       -1.27400
H          4.68000        8.17400       -2.05300
C          4.31900        6.62900       -0.60000
O          4.57400        5.67700       -1.31900
O          4.26600        6.45400        0.73900
H          4.37600        5.50500        0.92000
C          6.61700       10.36800        1.03400
O          5.81200       10.88000        1.80800
N          7.90600       10.66500        1.11700
H          8.56600       10.17000        0.53100
H          8.21000       11.31900        1.81900
