64
0 1
H         16.71400        2.82800       -6.65100
C         15.83400        2.65700       -6.03500
H         16.05000        1.89400       -5.28700
H         15.00400        2.32900       -6.66000
C         15.44800        3.93800       -5.33700
O         15.30000        3.95900       -4.12000
N         15.27800        5.00900       -6.11100
H         15.46100        4.91200       -7.10500
C         14.88000        6.33800       -5.61900
H         15.53800        6.61500       -4.79500
C         15.03300        7.38500       -6.74000
H         14.38800        7.12900       -7.58200
H         14.68600        8.34000       -6.34300
C         16.48000        7.59500       -7.23300
H         16.53400        8.57700       -7.70200
H         17.15800        7.60100       -6.37900
C         16.97600        6.57500       -8.26100
O         16.30800        5.62700       -8.64000
N         18.18500        6.72100       -8.75200
H         18.77000        7.48600       -8.47100
H         18.46900        6.03600       -9.43100
C         13.44200        6.37000       -5.06700
O         13.13800        7.18500       -4.20000
N         12.58400        5.45200       -5.52200
H         12.92700        4.79000       -6.20200
C         11.28000        5.14800       -4.93400
H         11.22400        5.59500       -3.94000
C         10.15100        5.74800       -5.78000
H         10.22500        6.83600       -5.74700
H         10.28400        5.43700       -6.81700
C          8.76800        5.33500       -5.31100
C          8.27000        5.81800       -4.08500
H          8.85700        6.51100       -3.49500
C          7.00800        5.39700       -3.62200
H          6.61800        5.76000       -2.68300
C          6.23700        4.49900       -4.38800
O          5.02500        4.09200       -3.93300
H          4.53100        3.60700       -4.59600
C          6.74000        4.00700       -5.61300
H          6.15900        3.31000       -6.19700
C          8.00600        4.42200       -6.06800
H          8.39700        4.03600       -7.00000
C         11.13400        3.62900       -4.76600
O         11.62500        2.86400       -5.59500
N         10.49200        3.20500       -3.67600
H         10.16800        3.91600       -3.03100
C         10.56800        1.83600       -3.14900
H         11.16900        1.22900       -3.82700
C         11.28600        1.85000       -1.78000
H         10.61500        2.26000       -1.02300
H         11.49200        0.81500       -1.50300
C         12.62500        2.62300       -1.74400
H         13.16700        2.33900       -0.84300
H         13.22900        2.32600       -2.60200
C         12.47500        4.14800       -1.73000
O         11.44500        4.70600       -1.38400
N         13.45900        4.88400       -2.18800
H         14.26500        4.45100       -2.63000
H         13.29000        5.87500       -2.27100
C          9.19600        1.14100       -3.05200
O          9.10200       -0.00400       -2.62900
N          8.10600        1.80100       -3.42800
H          7.21700        1.34100       -3.33900
H          8.18400        2.74000       -3.78700
