60
0 1
H          3.75500        9.26900       -3.05500
C          4.38500        9.18300       -2.17100
H          4.89300       10.12900       -1.99000
H          5.12000        8.39400       -2.31800
C          3.52000        8.84900       -0.97900
O          2.30500        8.76600       -1.10300
N          4.15300        8.66500        0.17700
H          5.16500        8.71100        0.15800
C          3.48800        8.30200        1.44200
H          2.43200        8.57200        1.39000
C          3.58700        6.76500        1.58200
H          2.87100        6.33100        0.88200
H          4.57600        6.43200        1.26800
C          3.29900        6.17700        2.97700
H          2.46400        6.70700        3.43700
H          2.99400        5.13800        2.85300
C          4.51800        6.17600        3.90500
O          5.55800        5.60100        3.62500
N          4.45100        6.82900        5.04200
H          5.25100        6.78100        5.64500
H          3.66400        7.43300        5.22500
C          4.06400        9.04800        2.65900
O          3.38800        9.22500        3.67300
N          5.32900        9.45600        2.58000
H          5.80800        9.32900        1.69700
C          6.16000        9.86600        3.71300
H          5.96900        9.18600        4.54500
C          7.64000        9.71600        3.31100
H          7.86400       10.37300        2.46800
H          8.25400       10.03700        4.15400
C          8.04000        8.26400        2.96300
H          9.12800        8.20700        2.92300
H          7.70900        7.60700        3.76800
C          7.50700        7.73100        1.62700
O          7.17800        8.45700        0.69900
N          7.32000        6.44000        1.49200
H          7.30000        5.85000        2.31400
H          6.96900        6.11700        0.61000
C          5.83800       11.27700        4.23400
O          6.28400       11.65100        5.31400
N          5.02800       12.04000        3.49600
H          4.69500       11.66200        2.61700
C          4.41800       13.30400        3.92000
H          5.16100       13.91000        4.44100
C          3.96000       14.04300        2.65400
H          3.54600       15.01200        2.93500
H          4.82400       14.22300        2.01300
C          2.92800       13.27400        1.86300
N          3.17300       12.11300        1.12100
C          1.98100       11.73800        0.62900
H          1.81600       10.87600       -0.00200
N          1.01700       12.58300        1.03200
H          0.03800       12.50400        0.79700
C          1.59400       13.55600        1.81700
H          1.09900       14.37500        2.32200
C          3.23000       13.12100        4.88400
O          2.72400       14.09500        5.42600
N          2.73800       11.90600        5.10000
H          3.12700       11.10600        4.62100
H          1.96100       11.81200        5.73100
