60
0 1
H         10.93900       13.64000        2.57800
C         10.58500       13.02600        1.75000
H         11.42700       12.50900        1.29400
H         10.09100       13.65500        1.01300
C          9.60300       12.00900        2.28000
O          9.32600       11.98200        3.47300
N          9.07000       11.17400        1.39000
H          9.35600       11.24300        0.42400
C          8.14100       10.09100        1.72400
H          8.46400        9.65500        2.67000
C          6.72300       10.68200        1.89900
H          6.77600       11.51200        2.60500
H          6.38200       11.08300        0.94400
C          5.66600        9.69400        2.42300
H          4.76500       10.24800        2.68400
H          5.40300        8.98800        1.63500
C          6.14400        8.92000        3.64600
O          6.43500        7.73800        3.57900
N          6.34600        9.56100        4.77500
H          6.71600        9.01800        5.53500
H          6.22000       10.55600        4.83200
C          8.18800        8.98200        0.65700
O          8.57700        9.23500       -0.48400
N          7.79200        7.75900        1.02000
H          7.45600        7.61900        1.96800
C          7.65900        6.63800        0.08800
H          8.60900        6.51600       -0.43600
C          7.35200        5.34100        0.85400
H          6.42200        5.46700        1.41100
H          7.20900        4.52900        0.14000
C          8.46300        4.94700        1.83800
H          8.55400        5.73000        2.59200
H          8.15800        4.03600        2.35300
S         10.10500        4.66900        1.11000
C          9.80400        3.17800        0.12400
H          9.41800        2.38500        0.76500
H          9.08600        3.39200       -0.66700
H         10.74100        2.85000       -0.32800
C          6.57300        6.90300       -0.96500
O          5.50700        7.43600       -0.66000
N          6.83800        6.49400       -2.20700
H          7.74700        6.08600       -2.37200
C          6.04400        6.80600       -3.40600
H          5.72400        7.84500       -3.31800
C          6.93800        6.70700       -4.66100
H          7.17500        5.66200       -4.86700
H          6.37700        7.10100       -5.50900
C          8.24800        7.50400       -4.54500
H          8.60200        7.73000       -5.55200
H          8.03500        8.45200       -4.04800
S          9.59400        6.65500       -3.66500
C         10.64600        8.07600       -3.27100
H         11.52800        7.73500       -2.72700
H         10.95800        8.57000       -4.19200
H         10.09300        8.78000       -2.64900
C          4.74900        5.97400       -3.54400
O          4.40300        5.50300       -4.62100
N          4.02000        5.74300       -2.46100
H          3.18100        5.19700       -2.55300
H          4.28800        6.17400       -1.58600
