60
0 1
H          5.72700       11.93400        4.86800
C          4.74300       12.11600        4.43900
H          4.84500       12.42200        3.39900
H          4.23500       12.89900        4.99900
C          3.92600       10.85000        4.51100
O          4.30700        9.90200        5.18700
N          2.81000       10.81600        3.78900
H          2.60000       11.62100        3.20600
C          1.87000        9.68400        3.74700
H          1.51900        9.51100        4.76500
C          0.64500       10.06800        2.88700
H         -0.15200        9.35600        3.10600
H          0.28900       11.05200        3.19800
C          0.85200       10.07300        1.35600
H          1.04700        9.05400        1.02200
H         -0.07000       10.40000        0.87700
C          1.98200       10.98500        0.88000
O          2.17900       12.08600        1.36600
N          2.80700       10.54000       -0.03900
H          2.69300        9.63100       -0.44500
H          3.62200       11.10600       -0.21700
C          2.50800        8.36500        3.26800
O          2.03700        7.29100        3.62400
N          3.59300        8.43400        2.49000
H          3.94700        9.35200        2.24700
C          4.39500        7.28500        2.04600
H          3.73000        6.47900        1.73200
C          5.23900        7.73400        0.84300
H          5.84600        6.89800        0.49000
H          4.57500        8.02900        0.03000
C          6.14200        8.89700        1.17200
N          5.74200       10.23500        1.22700
C          6.79600       10.90900        1.71300
H          6.81100       11.97300        1.91200
N          7.80800       10.06900        1.98400
H          8.64800       10.31800        2.51000
C          7.41400        8.79400        1.65100
H          7.96400        7.87500        1.81000
C          5.30600        6.69700        3.14200
O          5.95300        5.68200        2.90200
N          5.39000        7.32600        4.31900
H          4.86400        8.18500        4.43800
C          6.27800        6.93300        5.42300
H          6.46200        5.86100        5.34100
C          7.63700        7.64500        5.26800
H          8.31900        7.25600        6.02600
H          8.05700        7.39800        4.29200
C          7.55500        9.17500        5.40300
H          6.93400        9.58000        4.60600
H          7.10200        9.44000        6.35800
C          8.93200        9.82200        5.32800
O          9.31100       10.43300        4.34100
N          9.74500        9.69500        6.35300
H          9.45200        9.18500        7.16900
H         10.64800       10.12400        6.26700
C          5.65000        7.14200        6.81700
O          6.35200        7.20500        7.82100
N          4.33200        7.26900        6.91600
H          3.76000        7.23800        6.08800
H          3.93400        7.42800        7.82600
