60
0 1
H         13.20600        6.21800        4.50300
C         12.92400        6.39200        3.46600
H         13.70400        6.95800        2.96000
H         11.98600        6.94300        3.43300
C         12.73900        5.06100        2.77900
O         11.63100        4.72300        2.37600
N         13.82700        4.30500        2.64400
H         14.70800        4.67900        2.98400
C         13.85400        2.97900        2.01000
H         13.06700        2.95500        1.25500
C         15.20200        2.79400        1.27500
H         15.04100        2.06400        0.48000
H         15.47800        3.73200        0.79100
C         16.39900        2.28800        2.11200
H         16.18900        1.27500        2.45200
H         17.27300        2.22800        1.46500
C         16.77200        3.14800        3.32100
O         16.50800        4.33600        3.39700
N         17.38000        2.57700        4.33200
H         17.61500        1.58600        4.30300
H         17.63400        3.16600        5.10300
C         13.57400        1.81200        2.97700
O         13.25300        0.71600        2.52400
N         13.73600        2.02600        4.29000
H         13.92000        2.98600        4.55300
C         13.61300        1.07000        5.41500
H         13.91600        1.61500        6.31000
C         12.14000        0.65800        5.63700
H         11.70400        0.32000        4.69600
H         12.11800       -0.18500        6.32800
C         11.26000        1.76700        6.24500
H         10.24900        1.38300        6.37600
H         11.65000        2.03300        7.22800
C         11.20100        3.02400        5.38700
O         11.89200        3.99800        5.63700
N         10.46400        3.01200        4.29900
H         10.59500        3.79600        3.66400
H          9.94000        2.20200        4.03400
C         14.54600       -0.16100        5.38900
O         14.93100       -0.64700        6.44900
N         14.94800       -0.66300        4.22000
H         14.54500       -0.26400        3.38100
C         15.91500       -1.75500        4.07400
H         15.59600       -2.58200        4.70900
C         15.94500       -2.24700        2.61800
H         16.28400       -1.43900        1.96700
H         16.65600       -3.07100        2.54100
C         14.57700       -2.73600        2.12900
H         14.19900       -3.48600        2.82400
H         13.88200       -1.89600        2.11600
S         14.62200       -3.46000        0.46900
C         12.85000       -3.73400        0.21400
H         12.46700       -4.40800        0.98100
H         12.32000       -2.78200        0.26900
H         12.69000       -4.17900       -0.76900
C         17.32400       -1.32800        4.51800
O         17.77700       -0.22300        4.22900
N         18.05900       -2.20600        5.18600
H         17.67800       -3.10400        5.43400
H         18.98200       -1.93000        5.47700
