60
0 1
H          9.86500       -0.48900       -6.65500
C          9.54100       -0.86400       -5.68400
H         10.40200       -1.21400       -5.12000
H          8.83400       -1.67900       -5.83100
C          8.86800        0.25700       -4.92800
O          8.85200        1.38800       -5.39600
N          8.30600       -0.05900       -3.76100
H          8.33500       -1.02100       -3.46600
C          7.54800        0.88300       -2.92300
H          7.01700        0.29500       -2.17600
C          8.50200        1.83900       -2.16300
H          8.95300        2.52700       -2.87900
H          7.91400        2.43100       -1.45900
C          9.65500        1.17100       -1.38900
H         10.29200        0.62300       -2.08200
H         10.26500        1.96000       -0.94800
C          9.22600        0.22900       -0.26500
O          8.06400       -0.02400       -0.00900
N         10.16100       -0.34500        0.45900
H          9.83100       -0.94400        1.19500
H         11.13200       -0.15500        0.29700
C          6.43300        1.59000       -3.72700
O          5.58300        0.91900       -4.31200
N          6.44800        2.92500       -3.80700
H          7.23400        3.41200       -3.39100
C          5.51300        3.76100       -4.57900
H          4.49400        3.57100       -4.24200
C          5.87300        5.23200       -4.30700
H          5.17500        5.88100       -4.83800
H          5.77500        5.43500       -3.24000
C          7.28200        5.56000       -4.73700
N          8.43500        5.21100       -4.03000
C          9.46300        5.50300       -4.84100
H         10.50300        5.32200       -4.60300
N          9.01700        6.00500       -6.00600
H          9.59600        6.21100       -6.81100
C          7.64200        6.04300       -5.96100
H          6.96700        6.31300       -6.76200
C          5.53800        3.50800       -6.09800
O          4.65800        3.99100       -6.80500
N          6.53400        2.77700       -6.60400
H          7.24800        2.45100       -5.96100
C          6.69700        2.40700       -8.01500
H          5.74900        2.58700       -8.52300
C          7.74300        3.32100       -8.67900
H          7.78900        3.08600       -9.74200
H          7.41100        4.35500       -8.58100
C          9.14900        3.20100       -8.07400
H          9.08000        3.37500       -7.00100
H          9.52200        2.18700       -8.22500
S         10.36600        4.37900       -8.73200
C         10.58400        3.71400      -10.40500
H          9.65000        3.78900      -10.96000
H         11.35500        4.28400      -10.92500
H         10.88800        2.66800      -10.34700
C          6.97300        0.90000       -8.18800
O          7.60000        0.46900       -9.15000
N          6.52000        0.06400       -7.26000
H          6.67900       -0.92000       -7.38500
H          6.01900        0.42300       -6.45800
