60
0 1
H          7.94200        2.94500        1.64500
C          8.64300        3.76400        1.79800
H          9.23000        3.91600        0.89400
H          9.30500        3.53100        2.63000
C          7.87100        5.02200        2.11400
O          6.65000        4.99200        2.19000
N          8.58900        6.12700        2.30200
H          9.60000        6.04100        2.26700
C          8.04900        7.44400        2.67500
H          7.01400        7.30400        2.99000
C          8.82900        7.97700        3.89900
H          8.15700        8.63200        4.45700
H          9.07100        7.14100        4.55800
C         10.11700        8.78400        3.62300
H          9.84100        9.74400        3.18700
H         10.60100        8.99900        4.57600
C         11.14900        8.11700        2.71200
O         11.23900        6.91000        2.57400
N         11.97500        8.88300        2.03600
H         12.65200        8.40700        1.46600
H         11.93600        9.88200        2.12100
C          8.00700        8.45900        1.51400
O          7.65800        9.62000        1.71800
N          8.41300        8.05800        0.30500
H          8.64500        7.08000        0.19100
C          8.65100        8.95100       -0.84100
H          9.30400        9.75400       -0.49500
C          9.41400        8.19100       -1.94100
H          9.67900        8.90700       -2.72000
H         10.34500        7.80100       -1.52900
C          8.64500        7.03800       -2.60700
H          7.64500        7.37200       -2.88500
H          9.16900        6.79200       -3.53100
S          8.53600        5.50400       -1.63800
C          6.76300        5.47100       -1.25500
H          6.48700        6.36600       -0.70300
H          6.18500        5.42500       -2.17900
H          6.53400        4.59600       -0.64600
C          7.40100        9.65200       -1.40600
O          7.53500       10.55900       -2.22100
N          6.19700        9.26600       -0.97800
H          6.14600        8.51000       -0.30600
C          4.93500        9.96300       -1.26700
H          4.96200       10.35200       -2.28500
C          3.79000        8.94600       -1.15800
H          2.84600        9.44000       -1.39400
H          3.94500        8.15800       -1.89600
C          3.68800        8.30600        0.20500
N          4.60400        7.39300        0.72700
C          4.15300        7.07300        1.94800
H          4.63100        6.36300        2.61200
N          3.02600        7.75200        2.22200
H          2.49600        7.68100        3.07900
C          2.71800        8.54000        1.13400
H          1.88100        9.21500        1.02400
C          4.66900       11.16700       -0.34400
O          3.70300       11.89400       -0.54500
N          5.47600       11.40200        0.68400
H          6.25300       10.78400        0.87400
H          5.28300       12.19400        1.27100
