56
0 1
H          7.42700        4.73100       -4.97100
C          7.26500        3.74400       -4.54200
H          8.16800        3.14400       -4.64000
H          6.44300        3.25200       -5.06100
C          6.91200        3.88300       -3.08000
O          5.83800        3.46500       -2.66300
N          7.81900        4.47100       -2.30200
H          8.67600        4.79500       -2.72600
C          7.66800        4.70800       -0.86100
H          6.60800        4.77800       -0.62800
C          8.28800        3.53800       -0.07000
H          9.26700        3.30100       -0.49100
H          8.45000        3.85700        0.95700
C          7.43700        2.26000       -0.04000
H          7.26600        1.89800       -1.05300
H          7.98800        1.48800        0.49700
C          6.10500        2.47200        0.67200
O          6.02100        2.45900        1.89000
N          5.03100        2.71100       -0.04300
H          4.16700        2.83200        0.45200
H          5.10800        2.81000       -1.05300
C          8.35300        6.02600       -0.45300
O          9.51300        6.22000       -0.81700
N          7.69600        6.92200        0.31500
C          6.33700        6.80700        0.82900
H          6.15200        5.82900        1.27500
H          5.62800        6.98800        0.01900
C          6.20000        7.89900        1.88800
H          6.55000        7.52600        2.85200
H          5.17400        8.25900        1.96600
C          7.14700        8.98400        1.37600
H          7.48900        9.63600        2.18200
H          6.64300        9.57100        0.60700
C          8.29500        8.19300        0.73900
H          8.66500        8.73700       -0.13100
C          9.46900        8.01300        1.71500
O         10.38500        8.82700        1.72600
N          9.47200        6.93600        2.50700
H          8.65800        6.33300        2.48700
C         10.57700        6.54600        3.39000
H         11.03900        7.46800        3.74700
C         10.02900        5.81900        4.64100
H         10.81700        5.85100        5.39400
H          9.18800        6.38600        5.04500
C          9.61400        4.33900        4.49300
H         10.41400        3.76900        4.02100
H          9.48100        3.92700        5.49300
C          8.31600        4.08700        3.72700
O          7.63700        4.94400        3.17500
O          7.96100        2.78900        3.66200
H          7.15000        2.72200        3.12100
C         11.70600        5.77000        2.67300
O         12.57100        5.19400        3.32000
N         11.71400        5.69300        1.34600
H         12.46400        5.19100        0.90400
H         11.01600        6.17600        0.79800
