57
0 1
H         -4.52500       15.03700       -4.82900
C         -5.45300       15.00300       -5.39700
H         -5.23800       15.06500       -6.46200
H         -6.09000       15.83600       -5.10400
C         -6.17100       13.70700       -5.10600
O         -7.29600       13.72400       -4.61800
N         -5.51800       12.58500       -5.40500
H         -4.58200       12.66700       -5.77400
C         -6.00900       11.21900       -5.18100
H         -6.68600       11.22800       -4.32800
C         -6.75700       10.71100       -6.43200
H         -6.17800       10.95700       -7.32400
H         -6.83000        9.62600       -6.38500
C         -8.18300       11.26000       -6.59000
H         -8.15600       12.34400       -6.69900
H         -8.61700       10.84800       -7.50000
C         -9.08200       10.87400       -5.41900
O         -9.54500        9.75400       -5.30200
N         -9.32300       11.76100       -4.48200
H         -9.92700       11.47900       -3.73300
H         -8.84400       12.65800       -4.50200
C         -4.84400       10.27100       -4.83600
O         -3.72600       10.50400       -5.29900
N         -5.07600        9.18900       -4.06200
C         -6.36600        8.75800       -3.53500
H         -7.14200        8.75700       -4.30100
H         -6.65700        9.40800       -2.70900
C         -6.14700        7.33700       -3.01900
H         -6.27200        6.62300       -3.83400
H         -6.81800        7.09900       -2.19300
C         -4.68600        7.36300       -2.57700
H         -4.24900        6.36400       -2.56600
H         -4.61600        7.81300       -1.58500
C         -4.01300        8.28600       -3.60100
H         -3.23900        8.86600       -3.09700
C         -3.32700        7.48600       -4.72200
O         -2.25600        6.93200       -4.50100
N         -3.90900        7.43800       -5.92400
H         -4.81800        7.86100       -6.02700
C         -3.31000        6.82600       -7.11800
H         -2.89300        5.85900       -6.83200
C         -4.39000        6.58600       -8.19000
H         -4.72300        7.54200       -8.59700
H         -3.93700        6.01700       -9.00300
C         -5.61500        5.80300       -7.69500
H         -6.10300        5.36100       -8.56500
H         -5.28300        4.99000       -7.04800
S         -6.85800        6.80000       -6.82200
C         -8.10300        5.53300       -6.47100
H         -8.93900        5.98700       -5.93800
H         -8.46400        5.10400       -7.40600
H         -7.66600        4.74700       -5.85400
C         -2.15000        7.64600       -7.72100
O         -1.51100        7.20600       -8.66800
N         -1.86600        8.84800       -7.23000
H         -2.39400        9.22200       -6.45500
H         -1.09700        9.35600       -7.63200
