63
0 1
H          2.35900        8.77800       -8.88700
C          1.28500        8.69700       -8.72900
H          1.03600        7.69700       -8.37700
H          0.76300        8.89700       -9.66300
C          0.85800        9.71400       -7.69800
O          0.11600       10.63700       -8.01200
N          1.31500        9.52900       -6.46300
H          1.82700        8.67500       -6.27800
C          0.99600       10.38400       -5.30900
H          0.09900       10.96900       -5.52200
C          0.71000        9.47800       -4.09500
H          1.61200        8.92600       -3.82300
H          0.45900       10.12600       -3.25400
C         -0.46200        8.49300       -4.28800
H         -0.81500        8.19400       -3.30000
H         -1.28400        9.00900       -4.78400
C         -0.13800        7.20700       -5.05800
O          0.99100        6.88200       -5.39800
N         -1.13200        6.41000       -5.37500
H         -0.89500        5.56800       -5.86900
H         -2.07500        6.63800       -5.11700
C          2.11600       11.38500       -4.95700
O          1.88300       12.38200       -4.28000
N          3.34400       11.10000       -5.38800
H          3.43600       10.28200       -5.96900
C          4.59800       11.65500       -4.85100
H          4.54600       11.60100       -3.76300
C          5.75100       10.74300       -5.31400
H          5.99500       10.97200       -6.35300
H          6.63600       10.94300       -4.70800
C          5.37400        9.27400       -5.20200
C          5.32700        8.66500       -3.93300
H          5.71000        9.18800       -3.06700
C          4.71100        7.40900       -3.77800
H          4.63000        6.95000       -2.80400
C          4.12800        6.77000       -4.89100
O          3.38800        5.64900       -4.71600
H          2.49600        5.80200       -5.06200
C          4.21600        7.35800       -6.17100
H          3.77400        6.85300       -7.01600
C          4.85400        8.60200       -6.32900
H          4.89100        9.06900       -7.30400
C          4.84700       13.13000       -5.20300
O          5.63500       13.79900       -4.54400
N          4.14500       13.64600       -6.21300
H          3.55400       13.00600       -6.73000
C          4.09000       15.06300       -6.57900
H          5.10400       15.46100       -6.51200
C          3.63400       15.19300       -8.05000
H          3.83300       16.22000       -8.35900
H          4.25200       14.54800       -8.67800
C          2.14300       14.91000       -8.34000
H          1.51500       15.48400       -7.66000
H          1.92200       15.26000       -9.34800
C          1.72900       13.43800       -8.27500
O          2.49100       12.48600       -8.14000
O          0.40200       13.23500       -8.37100
H          0.25500       12.27300       -8.29500
C          3.22200       15.92200       -5.63100
O          3.12900       17.13000       -5.81100
N          2.54100       15.34400       -4.64800
H          2.58400       14.34400       -4.50700
H          1.98700       15.92800       -4.04500
