59
0 1
H         -0.14900        5.14500        9.45100
C         -0.33500        5.57600        8.46900
H         -1.36900        5.39200        8.18000
H          0.33300        5.13000        7.73400
C         -0.09500        7.06600        8.52000
O         -1.00400        7.84500        8.24800
N          1.12700        7.46100        8.87200
H          1.81700        6.75100        9.04900
C          1.57200        8.86100        8.88900
H          0.85800        9.42600        9.49000
C          2.95100        8.92600        9.58000
H          2.80700        8.73400       10.64500
H          3.57500        8.12300        9.18300
C          3.75000       10.23400        9.42400
H          4.65700       10.15500       10.02400
H          4.06100       10.34000        8.38400
C          3.01600       11.50600        9.83800
O          1.84500       11.52300       10.17400
N          3.65800       12.63900        9.73200
H          4.55400       12.67900        9.26200
H          3.11500       13.48800        9.85200
C          1.57800        9.46900        7.47300
O          1.95000        8.79300        6.51800
N          1.16700       10.73800        7.33000
H          0.93800       11.26000        8.17100
C          0.83500       11.33400        6.01800
H          1.02000       10.58000        5.25200
C         -0.67000       11.67900        5.92300
H         -0.83200       12.70500        6.24700
H         -0.94200       11.64400        4.86700
C         -1.63800       10.75600        6.69000
H         -2.61800       10.81200        6.21500
H         -1.30000        9.72500        6.61200
C         -1.82900       11.17600        8.15200
O         -1.90000       12.34400        8.52100
O         -1.93200       10.16000        9.04300
H         -1.71900        9.29100        8.65500
C          1.70200       12.54400        5.60100
O          1.43500       13.15500        4.56900
N          2.70700       12.93500        6.39300
H          2.89000       12.40900        7.23400
C          3.49700       14.16400        6.18800
H          3.66500       14.28700        5.11700
C          2.69900       15.40200        6.67300
H          3.37700       16.20700        6.95700
H          2.10900       15.76600        5.83200
C          1.74300       15.15000        7.81500
N          2.08100       15.01500        9.16200
C          0.96200       14.59500        9.77900
H          0.89800       14.32600       10.82600
N         -0.04000       14.46000        8.89600
H         -0.93100       13.99800        9.08000
C          0.42800       14.82800        7.65700
H         -0.10600       14.78200        6.71900
C          4.89700       14.06900        6.82200
O          5.23400       13.11500        7.51800
N          5.76400       15.03800        6.56000
H          5.49600       15.82100        5.98800
H          6.68500       14.97200        6.96300
