67
0 1
H         19.97800        6.74000       -0.39800
C         19.09700        7.20700       -0.83600
H         18.40800        6.43900       -1.18300
H         19.39700        7.83900       -1.67000
C         18.41400        8.05600        0.20800
O         18.19500        9.24300       -0.01200
N         18.07100        7.44300        1.33800
H         18.34300        6.47700        1.45200
C         17.49000        8.08400        2.52400
H         17.78400        9.13400        2.53400
C         15.95100        7.98900        2.51900
H         15.66000        6.95800        2.31300
H         15.57700        8.24300        3.51200
C         15.26200        8.91700        1.50600
H         15.61200        8.69600        0.49800
H         14.19000        8.72200        1.53200
C         15.48200       10.39300        1.82400
O         14.83800       10.97200        2.68500
N         16.41800       11.05400        1.18500
H         16.52000       12.02900        1.39300
H         17.03100       10.55900        0.54000
C         18.06600        7.45700        3.79800
O         18.47000        6.29600        3.80400
N         18.12100        8.24800        4.87100
H         17.73100        9.17200        4.78500
C         19.01500        8.01400        6.01600
H         19.50500        7.04900        5.88000
C         20.12100        9.08800        6.01100
H         19.74800        9.96700        6.53800
H         20.97900        8.71200        6.57000
C         20.58600        9.53400        4.64900
C         20.49100       10.79500        4.16800
H         20.09500       11.63900        4.72100
N         20.95800       10.83600        2.86900
H         20.98300       11.67600        2.30900
C         21.38000        9.59600        2.44200
C         21.90500        9.13400        1.22600
H         22.04700        9.81300        0.39900
C         22.24500        7.77600        1.10200
H         22.65800        7.40200        0.17500
C         22.04400        6.90300        2.18600
H         22.29900        5.85700        2.08700
C         21.51300        7.38000        3.40100
H         21.35100        6.69400        4.21800
C         21.17100        8.74100        3.56500
C         18.25800        7.91200        7.35300
O         18.76000        8.30700        8.40200
N         17.00900        7.44800        7.29800
H         16.67800        7.07900        6.41600
C         16.04200        7.43000        8.40100
H         16.55600        7.17500        9.32800
C         15.42700        8.83600        8.54500
H         14.70800        8.83600        9.36400
H         16.21600        9.54300        8.80500
C         14.73200        9.32300        7.29800
N         13.46500        8.92300        6.87800
C         13.26500        9.51900        5.69400
H         12.37500        9.39900        5.09000
N         14.33000       10.26500        5.35700
H         14.43100       10.76800        4.47400
C         15.26900       10.15600        6.35900
H         16.24600       10.61300        6.39600
C         14.96700        6.35600        8.14700
O         14.96500        5.69000        7.11600
N         14.05700        6.14300        9.08700
H         14.04200        6.70800        9.91800
H         13.34700        5.45400        8.90300
