60
0 1
H          0.33400       12.84000        2.21900
C          0.03900       12.85400        3.26700
H         -0.97700       13.23700        3.35200
H          0.71900       13.48700        3.83400
C          0.08800       11.44800        3.81400
O          0.83400       11.17100        4.74800
N         -0.71400       10.55900        3.23300
H         -1.29100       10.87600        2.45900
C         -0.84100        9.15200        3.63500
H         -0.85900        9.12500        4.72600
C         -2.19300        8.59400        3.13800
H         -2.42600        7.71900        3.74600
H         -2.97700        9.32900        3.32700
C         -2.26100        8.14800        1.66000
H         -1.53600        7.35200        1.49200
H         -3.24800        7.72400        1.47600
C         -2.03500        9.25300        0.62800
O         -2.19400       10.43600        0.87500
N         -1.64300        8.91500       -0.57900
H         -1.51300        7.95200       -0.83000
H         -1.51700        9.67100       -1.22900
C          0.33600        8.26000        3.19600
O          0.44900        7.12800        3.65600
N          1.21500        8.74600        2.31200
H          1.11700        9.71300        2.02400
C          2.37100        8.00700        1.77300
H          2.02700        7.09100        1.29000
C          3.06900        8.89700        0.73100
H          3.92500        8.36400        0.31500
H          2.37400        9.10800       -0.08400
C          3.53700       10.20700        1.31600
N          2.71000       11.30000        1.58000
C          3.46100       12.16300        2.28100
H          3.10500       13.10400        2.67800
N          4.68900       11.66200        2.49000
H          5.37400       12.06000        3.12800
C          4.75800       10.42700        1.88500
H          5.57700        9.72200        1.93400
C          3.38600        7.58600        2.84700
O          4.12800        6.63200        2.64200
N          3.42000        8.29600        3.97700
H          2.79500        9.08600        4.03700
C          4.28800        8.02600        5.13000
H          5.08700        7.35600        4.81000
C          4.95200        9.34600        5.56500
H          5.72300        9.13700        6.30800
H          5.45100        9.76700        4.69200
C          3.96100       10.37100        6.15200
H          2.94200       10.08900        5.89000
H          4.02500       10.34900        7.24000
C          4.18800       11.80700        5.67800
O          5.27500       12.24000        5.32800
N          3.15200       12.60900        5.61000
H          2.22000       12.21900        5.70600
H          3.32900       13.56400        5.36600
C          3.56000        7.29800        6.28100
O          4.06100        7.23100        7.39700
N          2.36200        6.76700        6.06100
H          1.94000        6.81300        5.14300
H          1.90400        6.29500        6.82100
