62
0 1
H          9.80100        0.01900        1.81800
C          9.33000        0.00500        2.79900
H          9.89600       -0.64300        3.46700
H          8.30800       -0.35800        2.71800
C          9.32000        1.40400        3.36900
O          9.89900        1.64400        4.42000
N          8.65900        2.32500        2.67200
H          8.16900        2.04000        1.83700
C          8.49000        3.72500        3.08100
H          8.38700        3.75700        4.16700
C          9.74300        4.54200        2.69400
H          9.74400        5.47800        3.25300
H         10.62500        3.98900        3.02000
C          9.89600        4.84100        1.18500
H         10.94900        5.03100        0.97800
H          9.60100        3.96600        0.60600
C          9.11600        6.06800        0.70700
O          8.89600        7.02300        1.43000
N          8.66100        6.09100       -0.52600
H          8.13600        6.91400       -0.80500
H          8.78600        5.30800       -1.13600
C          7.20800        4.30900        2.46600
O          6.70700        3.77800        1.47300
N          6.71500        5.42300        3.01100
H          7.19600        5.83000        3.80000
C          5.64300        6.21800        2.40700
H          5.65300        6.03800        1.33100
C          4.28100        5.74900        2.95500
H          4.14200        4.70000        2.68900
H          4.30500        5.81900        4.04400
C          3.07300        6.55900        2.44500
H          3.17100        7.59900        2.75500
C          2.93500        6.51200        0.92100
H          3.77900        7.01400        0.44900
H          2.89200        5.47700        0.58200
H          2.02300        7.02800        0.61900
C          1.78800        6.00100        3.05600
H          1.64500        4.96500        2.74800
H          1.85000        6.04700        4.14400
H          0.93500        6.59500        2.73000
C          5.89500        7.71600        2.62800
O          5.77000        8.22300        3.74100
N          6.21300        8.42200        1.54600
H          6.33600        7.91300        0.68000
C          6.56700        9.84600        1.49400
H          7.19400       10.07200        2.35700
C          7.41300       10.07400        0.22700
H          7.64400       11.13500        0.12200
H          8.36000        9.54600        0.34500
C          6.75600        9.57200       -1.03700
N          6.73700        8.23900       -1.46600
C          5.98500        8.22600       -2.57800
H          5.76700        7.33900       -3.16000
N          5.53200        9.46000       -2.85700
H          4.93000        9.70600       -3.63000
C          6.00300       10.32100       -1.89100
H          5.79000       11.37700       -1.78400
C          5.34700       10.78600        1.59200
O          5.22500       11.76600        0.86500
N          4.40100       10.49600        2.47400
H          3.60200       11.10300        2.54200
H          4.53400        9.71000        3.09600
