60
0 1
H          2.29700       11.66800        3.62700
C          2.60100       11.20800        2.68800
H          1.76200       10.67200        2.24900
H          3.42500       10.52100        2.87000
C          3.05700       12.28400        1.73400
O          2.46200       12.47100        0.67800
N          4.12500       12.99100        2.09400
H          4.55800       12.77700        2.98800
C          4.68700       14.10600        1.31700
H          3.90100       14.84400        1.15300
C          5.82500       14.77600        2.11200
H          6.60000       14.04300        2.34700
H          6.27700       15.52900        1.46500
C          5.37600       15.50000        3.39800
H          6.13900       16.23800        3.64800
H          4.44900       16.04100        3.20700
C          5.19200       14.60900        4.62900
O          5.29300       13.39400        4.59900
N          4.89900       15.18000        5.77500
H          4.79900       14.56200        6.56000
H          4.81100       16.17700        5.84900
C          5.19300       13.69200       -0.07800
O          5.29800       14.53600       -0.96200
N          5.46900       12.40300       -0.29600
H          5.34500       11.75300        0.47000
C          5.81200       11.81900       -1.59900
H          6.50500       12.47900       -2.12300
C          6.49800       10.47000       -1.33900
H          6.88100       10.07800       -2.28200
H          7.34600       10.61600       -0.66900
C          5.56300        9.45200       -0.72900
N          5.04600        9.50000        0.56900
C          4.20100        8.46200        0.66200
H          3.63300        8.21200        1.54800
N          4.15200        7.78600       -0.49900
H          3.57300        6.98000       -0.68800
C          5.00000        8.40100       -1.39100
H          5.16400        8.14100       -2.42900
C          4.60100       11.60600       -2.52700
O          4.79000       11.25400       -3.68700
N          3.37300       11.76600       -2.02000
H          3.30300       12.02900       -1.04500
C          2.12600       11.41700       -2.71200
H          2.35000       11.19900       -3.75800
C          1.58200       10.13000       -2.05900
H          2.32900        9.34300       -2.17400
H          1.45200       10.31000       -0.99100
C          0.24800        9.60100       -2.61300
H         -0.03500        8.71700       -2.04200
H         -0.53700       10.34400       -2.47300
C          0.32700        9.20900       -4.08400
O          0.57600        8.06900       -4.43100
N          0.12900       10.13100       -4.99900
H          0.21200        9.84100       -5.95600
H         -0.02700       11.09600       -4.72300
C          1.08900       12.55700       -2.71400
O          0.24600       12.62500       -3.60500
N          1.12000       13.46900       -1.75100
H          0.45000       14.21800       -1.77700
H          1.77500       13.37200       -0.98700
