63
0 1
H         -2.65400        6.68800       10.86500
C         -2.51000        7.17500        9.90200
H         -2.45300        8.25300       10.04400
H         -3.34000        6.93700        9.24000
C         -1.22000        6.69100        9.28400
O         -0.31600        7.48000        9.03300
N         -1.11800        5.38700        9.04300
H         -1.89200        4.78400        9.28400
C          0.04400        4.74600        8.41800
H          0.39900        5.38600        7.61000
C          1.15200        4.58200        9.47800
H          1.12000        5.40400       10.19500
H          0.96900        3.66400       10.03900
C          2.56700        4.52700        8.88500
H          3.24900        4.23100        9.68200
H          2.60600        3.76100        8.11200
C          3.09800        5.84300        8.30400
O          4.17700        5.87800        7.73800
N          2.41800        6.96700        8.37300
H          2.85600        7.77700        7.97500
H          1.49200        7.02900        8.78900
C         -0.37600        3.39600        7.81500
O         -1.25900        2.74200        8.36700
N          0.20700        2.99000        6.68000
H          0.92700        3.57200        6.27000
C         -0.28700        1.82200        5.92000
H         -0.62900        1.05800        6.62100
C         -1.49200        2.26800        5.06800
H         -1.94800        1.38000        4.62600
H         -2.24600        2.72000        5.71400
C         -1.14100        3.24200        3.95500
C         -1.07900        4.62500        4.21600
H         -1.32800        5.00100        5.19900
C         -0.68900        5.52100        3.20200
H         -0.63400        6.57900        3.40700
C         -0.36600        5.03100        1.91700
O          0.02300        5.88400        0.93500
H         -0.02100        6.80000        1.21200
C         -0.44100        3.64900        1.65200
H         -0.19700        3.28700        0.66400
C         -0.83000        2.75600        2.66900
H         -0.87900        1.69400        2.46400
C          0.74700        1.15200        4.99900
O          0.60800       -0.02100        4.66700
N          1.77200        1.88500        4.56100
H          1.83600        2.83700        4.89300
C          2.66100        1.53500        3.44800
H          2.03200        1.06900        2.68800
C          3.20600        2.83800        2.81800
H          3.60500        2.57700        1.83700
H          2.37700        3.52600        2.64600
C          4.32300        3.58800        3.57400
H          5.14800        2.91200        3.78900
H          4.71600        4.35500        2.90600
C          3.92700        4.29100        4.87500
O          2.80400        4.31100        5.38100
O          4.96600        4.91600        5.46300
H          4.66700        5.31500        6.30500
C          3.74700        0.48200        3.77400
O          4.80800        0.45800        3.16200
N          3.52900       -0.39300        4.74600
H          2.61900       -0.42800        5.18200
H          4.24100       -1.07500        4.94600
