59
0 1
H         10.72800       13.58200       -1.29800
C         11.59700       13.58300       -0.64300
H         11.36500       14.13000        0.27000
H         12.44000       14.05500       -1.14500
C         11.95900       12.16100       -0.28500
O         11.95100       11.79800        0.88600
N         12.27500       11.35300       -1.29700
H         12.27600       11.73200       -2.23200
C         12.66900        9.94800       -1.14500
H         13.14200        9.81800       -0.17100
C         11.44000        9.01900       -1.23800
H         10.82700        9.31900       -2.09000
H         11.78900        8.00300       -1.42700
C         10.56300        8.97000        0.02100
H         10.19800        9.96500        0.26900
H          9.69600        8.34200       -0.18000
C         11.31800        8.37200        1.20300
O         11.47900        7.16500        1.31900
N         11.85800        9.18400        2.08100
H         12.40600        8.77000        2.81200
H         11.81800       10.19000        1.92800
C         13.69700        9.51500       -2.19600
O         13.62700        9.90700       -3.35800
N         14.56500        8.59100       -1.78400
H         14.53600        8.38800       -0.79000
C         15.55900        7.81800       -2.54900
H         16.28400        8.52300       -2.95700
C         16.30000        6.89200       -1.55100
H         17.12700        6.41600       -2.08000
H         16.74000        7.49900       -0.75800
C         15.43700        5.77300       -0.91400
H         14.94300        5.19800       -1.69700
H         16.09400        5.09000       -0.37600
C         14.38900        6.28200        0.08000
O         14.48000        7.32800        0.71000
O         13.27100        5.53500        0.16900
H         12.65300        6.02400        0.74700
C         15.01900        6.99900       -3.74900
O         15.75900        6.21400       -4.33300
N         13.74000        7.14200       -4.09800
H         13.20400        7.83200       -3.59600
C         13.05800        6.44100       -5.19400
H         13.78900        6.24500       -5.98000
C         12.53900        5.07000       -4.70700
H         11.87900        4.64000       -5.46200
H         13.39700        4.40300       -4.61600
C         11.81400        5.06600       -3.35100
H         11.50200        4.04100       -3.15100
H         12.52200        5.34500       -2.57100
S         10.35300        6.12900       -3.20200
C          9.77900        5.60100       -1.56500
H          9.53700        4.53900       -1.58800
H         10.55900        5.77700       -0.82500
H          8.88800        6.16600       -1.29200
C         11.96200        7.29700       -5.86600
O         11.19900        6.81200       -6.69000
N         11.86500        8.58700       -5.55900
H         12.52400        9.02000       -4.92800
H         11.14500        9.12400       -6.01300
