57
0 1
H          9.43000        9.77000        8.82400
C          9.64900       10.83600        8.87300
H         10.72300       10.97700        8.98300
H          9.11900       11.28300        9.71100
C          9.20300       11.48300        7.58400
O          8.76300       10.79600        6.67100
N          9.32000       12.80900        7.51500
H          9.69900       13.29800        8.31100
C          9.10700       13.60800        6.30300
H          9.49700       13.03200        5.46900
C          7.59900       13.81900        6.04500
H          7.45700       14.14800        5.01500
H          7.10100       12.85200        6.12600
C          6.88600       14.80000        6.99700
H          5.82000       14.57200        6.98700
H          7.24400       14.64800        8.01500
C          7.03500       16.27500        6.61700
O          7.41900       16.64500        5.52100
N          6.72500       17.18800        7.51000
H          6.43500       16.92700        8.43200
H          6.85500       18.14000        7.22000
C          9.87700       14.94400        6.41400
O          9.98700       15.46000        7.53200
N         10.38800       15.52600        5.30700
C         10.88600       16.89200        5.30200
H         11.95400       16.89100        5.52800
H         10.34900       17.51800        6.01600
C         10.64700       17.39200        3.88200
H         11.32500       18.20400        3.61800
H          9.60600       17.70100        3.77000
C         10.90900       16.13600        3.05300
H         11.98400       16.02800        2.89900
H         10.39100       16.17300        2.09400
C         10.38100       14.99500        3.93400
H          9.35300       14.77500        3.64400
C         11.23700       13.73000        3.74800
O         11.00200       12.94600        2.83400
N         12.18000       13.49300        4.66200
H         12.32900       14.21200        5.36400
C         12.95400       12.26100        4.86400
H         13.34600       11.92500        3.90300
C         14.14100       12.60900        5.78500
H         14.68100       11.70000        6.05400
H         14.83100       13.24900        5.23400
C         13.72900       13.34600        7.04100
N         13.36700       14.69500        7.09000
C         12.96300       14.92500        8.34700
H         12.59100       15.87600        8.70600
N         13.04700       13.80000        9.07900
H         12.78800       13.71600       10.05100
C         13.52200       12.79100        8.26900
H         13.65400       11.74700        8.52100
C         12.09000       11.10700        5.42000
O         12.35700       10.54900        6.47900
N         11.01000       10.76000        4.73600
H         10.78900       11.24100        3.87500
H         10.36500       10.10600        5.15400
