60
0 1
H          4.25900       16.94500      -10.39000
C          5.33900       16.83000      -10.32200
H          5.82800       17.77100      -10.56600
H          5.66800       16.05700      -11.01500
C          5.71100       16.42000       -8.91700
O          6.25200       15.34100       -8.71300
N          5.42100       17.28800       -7.95100
H          5.05600       18.19300       -8.22700
C          5.79700       17.12400       -6.53600
H          5.92800       16.06000       -6.33300
C          7.16100       17.81100       -6.29000
H          7.35800       17.83500       -5.21800
H          7.93900       17.19200       -6.73800
C          7.32300       19.24100       -6.85100
H          8.18100       19.71400       -6.37400
H          7.53800       19.17400       -7.91800
C          6.09300       20.12600       -6.67900
O          5.21100       20.16100       -7.52300
N          5.94900       20.82400       -5.57600
H          5.11600       21.38100       -5.50300
H          6.62400       20.76100       -4.83500
C          4.72000       17.59800       -5.53600
O          4.95800       17.59400       -4.33100
N          3.54200       18.02500       -6.00800
H          3.40900       18.01900       -7.00700
C          2.48700       18.62800       -5.17500
H          2.92300       19.46300       -4.62500
C          1.39900       19.18300       -6.10900
H          1.86800       19.85200       -6.83200
H          0.93900       18.35700       -6.65300
C          0.30700       19.96900       -5.37200
H         -0.24500       19.29900       -4.71300
H          0.78900       20.72800       -4.75500
S         -0.87800       20.80900       -6.45900
C         -1.81000       19.39200       -7.10100
H         -1.15200       18.74500       -7.68000
H         -2.23800       18.82900       -6.27100
H         -2.61400       19.75100       -7.74400
C          1.90100       17.66300       -4.12600
O          1.38100       18.09700       -3.10300
N          2.01300       16.35500       -4.36100
H          2.46000       16.06600       -5.22300
C          1.65800       15.27600       -3.43200
H          0.72000       15.52500       -2.93400
C          1.45700       14.00000       -4.26400
H          1.19600       13.17200       -3.60500
H          0.62200       14.15400       -4.94900
C          2.67400       13.62600       -5.07800
N          3.09500       14.27400       -6.24400
C          4.21500       13.64100       -6.62700
H          4.78400       13.87900       -7.51500
N          4.52600       12.66600       -5.75600
H          5.32900       12.05700       -5.82800
C          3.56700       12.64300       -4.76900
H          3.52100       11.99100       -3.90700
C          2.69500       15.03500       -2.31600
O          2.50700       14.15500       -1.48400
N          3.80500       15.76100       -2.27300
H          4.46100       15.58600       -1.53200
H          3.97700       16.47600       -2.96700
