60
0 1
H          2.94500        5.87700        1.16800
C          2.60800        6.89300        1.36900
H          2.11900        6.92900        2.34100
H          1.91100        7.21100        0.59500
C          3.79900        7.82000        1.37500
O          3.89300        8.71400        0.54300
N          4.71600        7.60500        2.31400
H          4.53700        6.85800        2.97900
C          5.92200        8.41400        2.53900
H          5.63800        9.46300        2.45100
C          6.44300        8.19500        3.97700
H          6.75300        7.15700        4.10900
H          7.32800        8.82100        4.10000
C          5.45700        8.59300        5.09400
H          6.03900        8.79500        5.99300
H          4.94900        9.51700        4.82000
C          4.41400        7.53400        5.45900
O          4.26600        6.49300        4.84100
N          3.62500        7.76500        6.48400
H          2.96200        7.04100        6.69800
H          3.71200        8.60500        7.02500
C          7.01500        8.17400        1.47300
O          8.15000        7.81800        1.78900
N          6.67900        8.37000        0.19400
H          5.71900        8.64700        0.01200
C          7.57700        8.22500       -0.96100
H          8.16400        7.31900       -0.80800
C          6.72500        8.01600       -2.22900
H          6.01900        7.20300       -2.04900
H          6.15200        8.92200       -2.43100
C          7.54900        7.66200       -3.47500
H          6.86000        7.55500       -4.31400
H          8.22600        8.48200       -3.71100
S          8.51300        6.13200       -3.33900
C          9.30900        6.12900       -4.96600
H          9.91600        7.02700       -5.07900
H          9.94700        5.25000       -5.05600
H          8.54800        6.10300       -5.74700
C          8.57800        9.39500       -1.06200
O          8.52800       10.21800       -1.97300
N          9.47700        9.49400       -0.08000
H          9.42000        8.79300        0.65100
C         10.45800       10.57800        0.09900
H          9.96300       11.52100       -0.13900
C         10.88500       10.63800        1.57900
H         11.34400        9.68700        1.84900
H         11.62500       11.42900        1.71200
C          9.70400       10.92900        2.51800
H          9.31200       11.91700        2.27400
H          8.91000       10.20600        2.34100
S         10.08600       10.89700        4.29100
C         10.48600        9.14100        4.51800
H         10.61500        8.93500        5.58100
H          9.67900        8.52300        4.12500
H         11.41200        8.90100        3.99600
C         11.66400       10.47600       -0.86100
O         12.81700       10.57900       -0.46100
N         11.43100       10.23800       -2.14400
H         12.21400       10.16100       -2.77000
H         10.47500       10.17900       -2.46800
