62
0 1
H          7.61500        3.79900        2.08400
C          8.64500        3.71900        1.74100
H          8.74700        2.85800        1.08200
H          9.31100        3.61300        2.59500
C          9.01000        4.97300        0.98300
O          9.93600        5.68000        1.36200
N          8.28700        5.24700       -0.09900
H          7.51700        4.63000       -0.33700
C          8.43000        6.48200       -0.87200
H          9.49900        6.65700       -1.00200
C          7.81800        6.30600       -2.27900
H          8.26600        7.06400       -2.92200
H          8.11200        5.33500       -2.68200
C          6.28700        6.46500       -2.40200
H          5.99600        7.44100       -2.02100
H          6.02700        6.44700       -3.46100
C          5.44400        5.39400       -1.70900
O          5.90900        4.34300       -1.29700
N          4.15700        5.61400       -1.57100
H          3.62200        4.89500       -1.12100
H          3.73800        6.47200       -1.92000
C          7.85300        7.69900       -0.12500
O          6.96800        7.56900        0.72100
N          8.29400        8.90600       -0.49800
H          9.01700        8.94600       -1.19800
C          7.77800       10.18300        0.02100
H          7.66800       10.09300        1.10300
C          8.79900       11.30700       -0.26200
H          8.89500       11.42300       -1.34200
H          8.39700       12.24000        0.13600
C         10.20500       11.09000        0.33200
H         10.64400       10.18700       -0.09300
C         11.10200       12.27300       -0.03600
H         12.10900       12.10400        0.34600
H         11.15300       12.37400       -1.12000
H         10.70500       13.19300        0.39300
C         10.18800       10.96100        1.85600
H          9.70400       11.82900        2.30400
H          9.65900       10.05500        2.14900
H         11.21000       10.88700        2.23000
C          6.37000       10.50100       -0.53000
O          6.19000       11.41800       -1.32800
N          5.38000        9.70100       -0.12000
H          5.66500        8.95000        0.50200
C          3.99100        9.64300       -0.60500
H          3.52300        8.81700       -0.06700
C          3.21700       10.91200       -0.19900
H          3.33000       11.07300        0.87300
H          3.64100       11.77500       -0.71300
C          1.72300       10.84100       -0.54000
H          1.26300       11.79000       -0.26500
H          1.61500       10.73000       -1.62000
S          0.78700        9.50500        0.26100
C          0.83800       10.03300        1.99500
H          0.42200       11.03600        2.08600
H          0.24700        9.34300        2.59800
H          1.86600       10.02800        2.35500
C          3.85100        9.27900       -2.09500
O          3.32700        8.22100       -2.42700
N          4.35500       10.09100       -3.01300
H          4.86200       10.91500       -2.71500
H          4.26600        9.84400       -3.98400
