64
0 1
H          4.34500       10.62000        1.15800
C          5.37800       10.42400        0.87700
H          6.00400       10.39800        1.76800
H          5.73000       11.20800        0.20900
C          5.45400        9.08700        0.18100
O          5.89000        8.10500        0.76900
N          5.05800        9.04500       -1.08900
H          4.81300        9.91900       -1.54200
C          4.98600        7.82000       -1.90000
H          4.33600        7.12100       -1.37200
C          4.32400        8.13900       -3.25900
H          3.90200        7.20700       -3.63700
H          3.48800        8.82200       -3.10100
C          5.23300        8.70100       -4.37500
H          6.01000        7.97200       -4.60500
H          4.63100        8.81500       -5.27600
C          5.89400       10.05100       -4.09000
O          5.54800       10.79100       -3.18600
N          6.89300       10.43000       -4.85500
H          7.26900       11.34400       -4.67200
H          7.20000        9.86000       -5.62200
C          6.34100        7.11000       -2.07900
O          6.38300        5.91400       -2.34700
N          7.44900        7.83500       -1.89900
H          7.33400        8.80000       -1.62800
C          8.81200        7.29300       -1.88500
H          8.97700        6.72400       -2.80100
C          9.79900        8.47200       -1.86200
H         10.81500        8.08500       -1.77700
H          9.73400        8.99500       -2.81700
C          9.55100        9.46700       -0.74000
C          8.83000       10.65100       -0.99500
H          8.48100       10.87500       -1.99400
C          8.56200       11.55100        0.05400
H          8.01500       12.46400       -0.12900
C          9.00000       11.26200        1.36200
O          8.71500       12.12400        2.37200
H          9.08400       11.83200        3.20700
C          9.72400       10.07800        1.61800
H         10.06200        9.85100        2.61800
C         10.00400        9.18700        0.56400
H         10.56000        8.27900        0.76200
C          9.07900        6.33100       -0.71100
O         10.05400        5.58700       -0.75300
N          8.22800        6.32000        0.32300
H          7.46200        6.98600        0.33000
C          8.28900        5.35700        1.42900
H          9.33400        5.25100        1.71900
C          7.51400        5.95100        2.62000
H          7.82600        6.98700        2.76100
H          6.45200        5.95400        2.37300
C          7.69000        5.22900        3.96300
H          7.00500        5.69900        4.66800
H          7.38600        4.18700        3.87300
S          9.35000        5.31700        4.70000
C         10.07500        3.75800        4.11600
H          9.43300        2.92400        4.40300
H         10.18000        3.76900        3.03300
H         11.05900        3.62500        4.56600
C          7.77500        3.95300        1.03600
O          7.95600        2.98800        1.76900
N          7.12900        3.79200       -0.11400
H          6.99200        4.57400       -0.73900
H          6.82000        2.86800       -0.36100
