64
0 1
H          4.28800        9.53200       -4.26400
C          4.38600        8.79600       -3.46800
H          4.22700        7.79600       -3.86600
H          3.65200        9.00100       -2.69000
C          5.77100        8.88500       -2.87300
O          5.91600        9.15000       -1.68400
N          6.79000        8.66000       -3.70100
H          6.58800        8.46500       -4.67100
C          8.20800        8.72000       -3.32900
H          8.33300        9.42900       -2.51000
C          8.71100        7.33100       -2.88600
H          8.36300        6.58000       -3.59700
H          9.79900        7.33000       -2.91900
C          8.29300        6.91300       -1.46900
H          7.20700        6.88400       -1.38900
H          8.66300        5.90600       -1.27800
C          8.87500        7.84100       -0.40900
O         10.03900        7.75500       -0.05100
N          8.11700        8.78900        0.09000
H          7.18100        8.93300       -0.28500
H          8.52000        9.38700        0.78600
C          9.07100        9.22200       -4.49400
O          8.85300        8.83900       -5.64100
N         10.07400       10.04100       -4.17600
H         10.17900       10.32500       -3.21100
C         11.15600       10.45800       -5.06800
H         11.49300        9.59400       -5.64300
C         10.66800       11.54400       -6.04000
H          9.86200       11.14000       -6.65400
H         10.25800       12.37600       -5.46500
C         11.75700       12.06400       -6.96000
C         12.37700       13.30100       -6.69600
H         12.06100       13.89700       -5.84900
C         13.40700       13.76500       -7.53600
H         13.88400       14.71600       -7.34700
C         13.82600       12.98900       -8.63600
O         14.83400       13.43600       -9.42700
H         14.95800       12.88900      -10.20400
C         13.21200       11.74400       -8.89400
H         13.53200       11.14600       -9.73400
C         12.17700       11.28600       -8.05600
H         11.69700       10.33600       -8.25700
C         12.33400       10.97200       -4.22700
O         12.11800       11.57800       -3.17800
N         13.57000       10.73900       -4.68200
H         13.66400       10.20900       -5.53400
C         14.78600       10.95500       -3.87600
H         14.53600       11.60600       -3.03700
C         15.25700        9.61300       -3.28300
H         15.75200        9.03800       -4.06600
H         15.98900        9.80600       -2.49800
C         14.14700        8.76100       -2.71300
N         13.54200        7.69100       -3.37600
C         12.56800        7.26000       -2.56200
H         11.91700        6.42400       -2.77800
N         12.50300        8.02000       -1.45700
H         11.80100        7.92400       -0.72100
C         13.49300        8.97500       -1.53400
H         13.69300        9.76800       -0.82700
C         15.91800       11.67800       -4.62700
O         17.04600       11.73400       -4.15800
N         15.65600       12.23600       -5.80200
H         14.71900       12.22500       -6.17200
H         16.40500       12.70500       -6.28400
