59
0 1
H          2.90000        9.95400        9.47400
C          3.63000       10.32400        8.75700
H          4.54900       10.60100        9.27000
H          3.22500       11.19200        8.23900
C          3.92800        9.24300        7.74500
O          3.69600        9.43600        6.55400
N          4.43300        8.10500        8.22100
H          4.58100        8.01600        9.21400
C          4.78200        6.96200        7.37500
H          4.33700        7.13400        6.39700
C          6.30900        6.90800        7.14600
H          6.58200        7.74700        6.50400
H          6.81400        7.04700        8.10300
C          6.85900        5.60900        6.51300
H          7.89100        5.77900        6.20700
H          6.87600        4.83100        7.27600
C          6.08200        5.07300        5.30800
O          5.25100        5.73300        4.70900
N          6.28000        3.83000        4.93300
H          5.72900        3.49300        4.14500
H          6.93000        3.23900        5.41400
C          4.19300        5.64000        7.88500
O          4.71200        5.01900        8.80800
N          3.15300        5.18900        7.18800
H          2.72400        5.84900        6.54700
C          2.69200        3.79900        7.08600
H          3.54100        3.15300        7.31100
C          1.60100        3.54400        8.14600
H          1.92600        3.97200        9.09600
H          0.68700        4.05700        7.84300
C          1.28200        2.06300        8.39300
H          0.47700        2.01200        9.12700
H          0.91300        1.60700        7.47700
S          2.67000        1.07700        9.01900
C          1.87900       -0.55200        9.07400
H          1.55000       -0.83100        8.07200
H          2.59400       -1.28900        9.43800
H          1.02000       -0.52000        9.74400
C          2.26600        3.48500        5.62800
O          1.45800        2.60000        5.36000
N          2.77700        4.25900        4.66300
H          3.50300        4.92000        4.91700
C          2.47600        4.14200        3.23800
H          1.42300        3.87700        3.12800
C          2.70900        5.49300        2.52500
H          3.75400        5.79000        2.61500
H          2.51100        5.33600        1.46400
C          1.80200        6.65100        2.99200
H          1.77600        7.40000        2.20000
H          0.78500        6.28500        3.13300
C          2.26000        7.35000        4.27400
O          1.92700        7.01100        5.40200
O          3.06500        8.41800        4.09600
H          3.27400        8.78300        4.97500
C          3.31600        3.02400        2.59400
O          4.48900        2.83900        2.90800
N          2.74600        2.28300        1.65400
H          3.29400        1.55100        1.23300
H          1.78000        2.42200        1.41100
