62
0 1
H          7.88400       -2.26800        1.62500
C          7.04800       -2.10000        0.94900
H          6.69000       -3.04900        0.55500
H          7.36700       -1.46300        0.12500
C          5.93200       -1.41100        1.69500
O          5.59800       -0.27400        1.38700
N          5.34800       -2.09900        2.67700
H          5.67400       -3.03500        2.85000
C          4.20300       -1.61400        3.46700
H          3.72400       -2.50100        3.88200
C          4.68300       -0.80900        4.70400
H          3.81400       -0.48800        5.28000
H          5.20800       -1.52500        5.33800
C          5.65400        0.38200        4.51800
H          6.16900        0.54000        5.46500
H          6.42700        0.15200        3.78900
C          4.97700        1.70500        4.17800
O          3.90100        2.01300        4.65900
N          5.55000        2.53900        3.34500
H          6.38200        2.28300        2.81500
H          5.08000        3.40900        3.18500
C          3.10000       -1.00200        2.56800
O          2.70900       -1.64300        1.59200
N          2.60100        0.20800        2.84200
H          2.96200        0.71200        3.64500
C          1.57200        0.89600        2.04400
H          0.72800        0.21600        1.92200
C          1.08700        2.14300        2.81400
H          1.93100        2.82600        2.92100
H          0.32900        2.65000        2.21500
C          0.49400        1.87000        4.21100
H          1.22100        1.34400        4.82900
C          0.16000        3.19500        4.89500
H         -0.23900        3.00700        5.89100
H          1.06900        3.79100        4.99300
H         -0.57400        3.74800        4.30800
C         -0.78500        1.03200        4.14400
H         -0.56200        0.04100        3.75100
H         -1.20300        0.91800        5.14400
H         -1.51800        1.52000        3.50100
C          2.00200        1.27800        0.60700
O          1.18400        1.78800       -0.15300
N          3.25600        1.02500        0.21700
H          3.88500        0.60600        0.89200
C          3.77200        1.19700       -1.14900
H          2.91100        1.25900       -1.81600
C          4.52100        2.54200       -1.30500
H          5.07000        2.55900       -2.24600
H          3.75100        3.30900       -1.39400
C          5.44700        3.00100       -0.15800
H          5.73900        4.02800       -0.37900
H          4.87800        3.02600        0.76900
C          6.74500        2.22600        0.08000
O          7.34800        2.32700        1.13900
N          7.25900        1.45200       -0.85000
H          8.10600        0.97900       -0.60700
H          6.73300        1.21700       -1.68400
C          4.53300       -0.04500       -1.65700
O          5.43000        0.05300       -2.49100
N          4.20500       -1.23500       -1.16800
H          3.49600       -1.30800       -0.44900
H          4.68900       -2.04600       -1.51000
