64
0 1
H         16.42300        9.58600       -3.71600
C         15.45300        9.94600       -3.37800
H         15.42700       11.03400       -3.42700
H         15.27600        9.62300       -2.35400
C         14.37300        9.38700       -4.27200
O         13.63000       10.14000       -4.88600
N         14.28600        8.06100       -4.34100
H         14.96000        7.50600       -3.82200
C         13.26000        7.33700       -5.10700
H         13.06300        7.90500       -6.01700
C         13.81800        5.95900       -5.53100
H         13.26800        5.64500       -6.42000
H         14.86200        6.07100       -5.82800
C         13.70700        4.81000       -4.50500
H         12.65300        4.58500       -4.34800
H         14.15900        3.91600       -4.93300
C         14.36000        5.06400       -3.14700
O         15.28700        5.84300       -2.99000
N         13.87600        4.44700       -2.09700
H         14.33200        4.60100       -1.21800
H         13.08600        3.81100       -2.20000
C         11.91700        7.20400       -4.36400
O         10.89300        6.97500       -5.00100
N         11.93200        7.31200       -3.02700
H         12.83000        7.53400       -2.62500
C         10.82100        7.16100       -2.06400
H         11.26800        7.24000       -1.07200
C          9.84700        8.34400       -2.18200
H          9.37000        8.32400       -3.16300
H          9.05900        8.22400       -1.43700
C         10.50600        9.69400       -1.97200
C         10.98800       10.42500       -3.07600
H         10.87400       10.03400       -4.07800
C         11.65000       11.65100       -2.87900
H         12.03900       12.18800       -3.73100
C         11.82600       12.15500       -1.57300
O         12.47600       13.33100       -1.37800
H         12.75600       13.71800       -2.20700
C         11.33500       11.42900       -0.46800
H         11.47500       11.82500        0.52600
C         10.67800       10.19900       -0.66800
H         10.31100        9.63900        0.18200
C         10.07800        5.80700       -2.04600
O          9.67100        5.36000       -0.97700
N          9.91900        5.13000       -3.18400
H         10.22900        5.58200       -4.03600
C          9.37700        3.77100       -3.27500
H          8.47200        3.73900       -2.66600
C          8.95800        3.47400       -4.72900
H          8.45700        2.50700       -4.76700
H          8.22300        4.22600       -5.02000
C         10.08600        3.50000       -5.77400
H          9.62700        3.56700       -6.76000
H         10.67300        4.40700       -5.63800
S         11.22300        2.08200       -5.80000
C         10.14200        0.78200       -6.45300
H          9.32200        0.59400       -5.76000
H          9.74200        1.08800       -7.42000
H         10.71900       -0.13500       -6.57800
C         10.33800        2.71500       -2.69300
O         11.53900        2.93200       -2.55000
N          9.82700        1.54100       -2.34700
H          8.84200        1.36500       -2.44600
H         10.45100        0.84900       -1.96500
