67
0 1
H          2.85600        9.48700        3.98600
C          2.49800        9.02100        3.07000
H          1.59500        9.52800        2.73200
H          2.27800        7.97000        3.25200
C          3.55700        9.13500        2.00100
O          3.32100        9.73500        0.95800
N          4.73100        8.56000        2.25900
H          4.84000        8.06700        3.13400
C          5.88000        8.53800        1.34700
H          5.53100        8.63900        0.31800
C          6.84800        9.69200        1.66500
H          7.10200        9.65400        2.72500
H          7.76500        9.52400        1.10400
C          6.33300       11.10400        1.33600
H          5.37100       11.27800        1.81500
H          7.03500       11.82900        1.74700
C          6.22400       11.35800       -0.16400
O          7.16900       11.77300       -0.81600
N          5.08800       11.10800       -0.77300
H          4.29800       10.73900       -0.24600
H          5.03900       11.32100       -1.75000
C          6.63100        7.20600        1.45700
O          6.81000        6.68100        2.55300
N          7.11800        6.68400        0.32800
H          6.98400        7.19000       -0.53500
C          7.86500        5.41700        0.25500
H          7.31600        4.64400        0.79600
C          7.97400        5.00200       -1.21900
H          8.48400        4.03900       -1.27600
H          6.96900        4.85800       -1.61900
C          8.69500        5.98500       -2.09200
C         10.01000        5.93300       -2.40400
H         10.68900        5.14900       -2.08500
N         10.35300        7.03900       -3.15600
H         11.28400        7.20100       -3.51400
C          9.27600        7.87900       -3.34400
C          9.13000        9.12200       -3.97500
H          9.97600        9.60100       -4.44500
C          7.86800        9.73900       -3.98300
H          7.73700       10.70100       -4.46100
C          6.77000        9.09900       -3.38100
H          5.79700        9.56900       -3.41200
C          6.92700        7.85000       -2.74900
H          6.06600        7.36200       -2.31600
C          8.18900        7.21700       -2.69700
C          9.26800        5.48900        0.88500
O          9.85200        4.45600        1.19200
N          9.81100        6.69600        1.07200
H          9.28600        7.49900        0.76400
C         11.08400        6.95600        1.76000
H         11.70500        6.06000        1.71200
C         11.82800        8.07800        1.01600
H         12.73800        8.32900        1.56100
H         12.12500        7.70400        0.03600
C         11.02100        9.33900        0.81900
N         10.73800       10.28400        1.80300
C          9.98600       11.22300        1.21200
H          9.58500       12.09300        1.71500
N          9.75200       10.89800       -0.07000
H          9.10000       11.39000       -0.68300
C         10.39800        9.71200       -0.33700
H         10.40600        9.17300       -1.27200
C         10.92300        7.25700        3.26300
O         11.90900        7.42600        3.96800
N          9.70700        7.29500        3.79700
H          9.63100        7.48500        4.78100
H          8.89300        7.09800        3.23500
