62
0 1
H          1.47600        1.19600        2.24500
C          2.03900        1.06700        1.32200
H          1.85000        1.90000        0.64700
H          1.74400        0.13400        0.84400
C          3.51300        1.00500        1.64400
O          4.16400        0.00500        1.36800
N          4.04600        2.07800        2.22500
H          3.43800        2.84500        2.45900
C          5.42700        2.10700        2.71800
H          6.05000        1.62200        1.96600
C          5.91500        3.56600        2.82800
H          7.00500        3.57400        2.86000
H          5.63000        4.08300        1.91000
C          5.35600        4.36800        4.02000
H          5.45400        5.43100        3.79800
H          4.29600        4.15100        4.14700
C          6.09000        4.10900        5.33500
O          7.18100        3.56100        5.37000
N          5.51600        4.49300        6.45400
H          5.96600        4.24300        7.32900
H          4.60000        4.89700        6.44900
C          5.55500        1.28600        4.01800
O          4.67400        1.33500        4.87600
N          6.64300        0.52000        4.15500
H          7.32900        0.54600        3.41800
C          6.76200       -0.56200        5.14500
H          5.83900       -1.14600        5.13000
C          7.92900       -1.48900        4.74300
H          8.81200       -0.89000        4.51600
H          8.17100       -2.10200        5.61300
C          7.64200       -2.46000        3.57800
H          6.73500       -3.02400        3.79900
C          7.47900       -1.77700        2.21700
H          8.32600       -1.12300        2.01500
H          7.41500       -2.53100        1.43300
H          6.54800       -1.21100        2.19200
C          8.80300       -3.44900        3.45600
H          9.72600       -2.92000        3.22200
H          8.92500       -3.99100        4.39500
H          8.59100       -4.17200        2.66800
C          6.94000       -0.09600        6.60400
O          6.67600       -0.87500        7.51900
N          7.38800        1.13800        6.84900
H          7.49400        1.77700        6.06900
C          7.63100        1.67700        8.19600
H          7.98900        0.86300        8.82800
C          8.73500        2.75400        8.17200
H          8.37800        3.63500        7.64000
H          8.95600        3.05100        9.19800
C         10.03600        2.28600        7.50900
H          9.83400        2.02400        6.47000
H         10.73400        3.12300        7.50700
S         10.84400        0.88000        8.32200
C         12.25600        0.65500        7.21000
H         11.89900        0.43700        6.20400
H         12.85800        1.56400        7.19500
H         12.86600       -0.17600        7.56400
C          6.32400        2.18400        8.82800
O          6.13000        3.37800        9.04500
N          5.37600        1.29100        9.07500
H          4.50000        1.60200        9.45600
H          5.53800        0.32400        8.82200
