57
0 1
H          3.94600       10.84200       -4.57800
C          4.68700       10.71200       -5.36400
H          5.53300       11.37400       -5.18200
H          4.24900       10.94000       -6.33400
C          5.17700        9.28300       -5.36100
O          6.36100        9.03700       -5.17500
N          4.26200        8.33700       -5.56600
H          3.31600        8.62400       -5.75500
C          4.59100        6.91500       -5.70500
H          5.29900        6.66000       -4.91800
C          3.30600        6.09900       -5.46200
H          2.82700        6.48500       -4.56100
H          2.61100        6.24200       -6.29200
C          3.54000        4.59700       -5.23400
H          4.32700        4.45900       -4.49100
H          2.62400        4.16100       -4.83600
C          3.91000        3.84600       -6.50300
O          5.06200        3.52000       -6.72700
N          2.96600        3.58700       -7.38100
H          3.23300        3.14000       -8.25300
H          2.02200        3.88400       -7.22800
C          5.23700        6.67400       -7.09300
O          4.56200        6.89600       -8.10000
N          6.52100        6.26900       -7.18400
C          7.38200        5.86700       -6.08000
H          6.91600        5.08900       -5.47500
H          7.61700        6.73700       -5.46500
C          8.65900        5.33700       -6.72400
H          8.53200        4.28500       -6.97700
H          9.52600        5.47600       -6.07700
C          8.75800        6.17400       -7.99900
H          9.35800        5.67800       -8.76300
H          9.18800        7.14700       -7.75800
C          7.29800        6.35700       -8.42700
H          7.18200        7.35500       -8.85200
C          6.90200        5.34800       -9.51700
O          7.05500        5.64400      -10.70000
N          6.38700        4.16800       -9.16100
H          6.24200        3.98300       -8.17300
C          5.84200        3.18800      -10.10900
H          6.41000        3.23600      -11.03900
C          5.97900        1.75500       -9.55300
H          5.67200        1.72700       -8.50700
H          5.30700        1.10200      -10.11100
C          7.38300        1.14700       -9.69000
H          7.31700        0.11400       -9.34700
H          7.65100        1.11600      -10.74600
S          8.73700        1.92600       -8.76300
C          9.52300        2.89600      -10.07900
H          8.80100        3.57600      -10.52900
H         10.34800        3.47200       -9.66100
H          9.90900        2.22400      -10.84700
C          4.39200        3.56400      -10.46200
O          3.43800        2.87000      -10.11900
N          4.19600        4.71100      -11.09700
H          4.99200        5.30100      -11.30100
H          3.25500        5.00500      -11.29500
