58
0 1
H          0.44200        3.83900        8.39200
C          0.66600        4.87300        8.13800
H          1.68000        4.93900        7.74500
H          0.57800        5.50200        9.02300
C         -0.30200        5.35100        7.08200
O          0.11800        5.74400        6.00100
N         -1.59400        5.33400        7.40900
H         -1.83300        5.00200        8.32900
C         -2.70700        5.73800        6.53500
H         -2.53900        5.28300        5.55700
C         -4.00800        5.12500        7.10500
H         -3.90600        4.04000        7.05200
H         -4.09600        5.39400        8.15900
C         -5.33400        5.50100        6.41500
H         -6.07800        4.73700        6.63700
H         -5.70400        6.43600        6.83500
C         -5.22000        5.64500        4.90200
O         -5.07600        4.67400        4.17500
N         -5.24600        6.85800        4.39400
H         -5.26500        7.65100        5.01400
H         -5.13300        6.98800        3.39400
C         -2.75000        7.26700        6.30000
O         -3.66200        7.96500        6.74100
N         -1.73400        7.79500        5.61700
H         -0.99500        7.15400        5.34200
C         -1.57400        9.21800        5.28500
H         -2.27800        9.80900        5.87300
C         -0.15000        9.66400        5.66300
H          0.57400        9.09800        5.07400
H         -0.04000       10.72200        5.41600
C          0.15900        9.47600        7.15900
H         -0.58800       10.00400        7.75100
H          0.11400        8.41800        7.41800
C          1.53800        9.99500        7.55300
O          2.34200       10.54100        6.81300
O          1.86100        9.81100        8.84700
H          2.73800       10.18700        8.93300
C         -1.86400        9.53400        3.80500
O         -2.00300       10.69700        3.43700
N         -1.94700        8.51600        2.94500
H         -1.89400        7.57300        3.31400
C         -2.24700        8.66000        1.52000
H         -1.74900        9.56800        1.17700
C         -1.63100        7.48300        0.72900
H         -1.45200        7.83200       -0.28900
H         -0.65500        7.24200        1.15500
C         -2.45800        6.18500        0.61800
H         -3.35200        6.38700        0.02800
H         -1.87600        5.44300        0.07100
C         -2.88900        5.55700        1.94200
O         -2.37000        5.76700        3.03300
O         -3.93400        4.71500        1.82000
H         -4.26900        4.53500        2.72100
C         -3.75700        8.84000        1.27500
O         -4.58600        8.16300        1.87700
N         -4.14100        9.71500        0.35600
H         -3.46100       10.28500       -0.12000
H         -5.12800        9.83300        0.19700
