58
0 1
H          8.13100       10.48000        4.84000
C          8.59900       10.98500        3.99700
H          9.43500       11.58700        4.34900
H          7.87100       11.62200        3.49900
C          9.10600        9.95000        3.02100
O          8.65100        9.90000        1.88300
N         10.04400        9.12100        3.47300
H         10.33400        9.23700        4.43900
C         10.79700        8.14900        2.66700
H         10.98400        8.62200        1.70200
C         12.17900        7.91000        3.31700
H         12.82700        7.47900        2.55200
H         12.61800        8.87000        3.59400
C         12.22400        6.96100        4.53500
H         11.79900        5.99600        4.26200
H         13.27000        6.78700        4.78900
C         11.52800        7.47000        5.79800
O         11.21200        8.63500        5.96400
N         11.25400        6.60800        6.75100
H         10.80900        6.98500        7.56900
H         11.50700        5.64200        6.66100
C         10.06200        6.82700        2.34900
O         10.67400        5.90100        1.81900
N          8.76700        6.69600        2.66800
H          8.31300        7.49500        3.09800
C          7.97900        5.45400        2.51200
H          8.57100        4.65700        2.96400
C          6.66600        5.54000        3.32300
H          6.24000        4.53600        3.37100
H          6.89200        5.83400        4.35000
C          5.58600        6.47500        2.74200
H          5.43400        6.26800        1.68200
H          4.64200        6.27700        3.25000
C          5.90300        7.95400        2.92600
O          6.67500        8.40500        3.76100
O          5.27000        8.78500        2.07800
H          5.61500        9.66100        2.25400
C          7.72600        4.99200        1.05400
O          6.89100        4.12200        0.82500
N          8.42100        5.56700        0.07300
H          9.10600        6.26400        0.34200
C          8.33700        5.25000       -1.35800
H          7.82200        4.29400       -1.46400
C          7.48000        6.31500       -2.07800
H          7.19900        5.91700       -3.05400
H          6.55800        6.46700       -1.51400
C          8.15400        7.68300       -2.31000
H          9.01900        7.56300       -2.96200
H          7.44600        8.33800       -2.81900
C          8.60700        8.35700       -1.02000
O          9.66700        8.12300       -0.45400
O          7.71200        9.19900       -0.46900
H          8.11100        9.52100        0.36300
C          9.72400        5.05900       -2.01100
O          9.82200        4.89200       -3.22100
N         10.81500        5.09400       -1.25300
H         10.74500        5.25300       -0.25700
H         11.70900        4.98300       -1.70100
