67
0 1
H          3.61100        8.10300       -3.65400
C          4.28400        8.75500       -4.20800
H          3.74300        9.64200       -4.53700
H          4.67900        8.22800       -5.07400
C          5.42400        9.17700       -3.31300
O          5.60900       10.36300       -3.06400
N          6.19100        8.20700       -2.82300
H          5.98600        7.25500       -3.09000
C          7.36200        8.40800       -1.96100
H          7.73400        9.42800       -2.07000
C          6.99400        8.16500       -0.48300
H          6.63400        7.13900       -0.38900
H          7.89800        8.24400        0.12100
C          5.91800        9.09200        0.11600
H          5.04500        9.13500       -0.53300
H          5.59400        8.66200        1.06500
C          6.41600       10.50600        0.39900
O          6.76300       10.85200        1.51700
N          6.49400       11.37400       -0.58300
H          6.17000       11.12700       -1.51500
H          6.80000       12.29900       -0.34900
C          8.47700        7.44400       -2.39100
O          8.23300        6.24900       -2.54000
N          9.69900        7.94600       -2.57600
H          9.85200        8.93000       -2.40200
C         10.87400        7.13500       -2.94100
H         10.61000        6.46100       -3.75800
C         11.99200        8.07200       -3.42600
H         12.90100        7.48800       -3.57900
H         11.70100        8.47600       -4.39600
C         12.29600        9.23100       -2.52200
C         13.29100        9.27400       -1.60700
H         14.00600        8.47900       -1.43200
N         13.21700       10.45700       -0.89800
H         13.81300       10.67000       -0.11100
C         12.15200       11.23100       -1.30500
C         11.63500       12.45900       -0.86800
H         12.10800       12.98800       -0.05300
C         10.49700       12.98800       -1.50100
H         10.09000       13.93700       -1.18000
C          9.89800       12.28700       -2.56300
H          9.03200       12.70500       -3.05900
C         10.42600       11.05400       -2.99500
H          9.96600       10.54000       -3.82600
C         11.55900       10.48600       -2.36700
C         11.34400        6.24900       -1.77600
O         11.76500        5.11600       -1.98500
N         11.19700        6.73400       -0.54200
H         10.93700        7.70900       -0.45200
C         11.29400        5.97700        0.71400
H         12.08800        5.23500        0.62000
C         11.67700        6.96400        1.83200
H         11.67100        6.46000        2.80000
H         12.69500        7.31100        1.65200
C         10.77900        8.17600        1.88700
N         10.87500        9.26500        1.02000
C          9.86000       10.08000        1.33200
H          9.63800       11.01200        0.82700
N          9.12500        9.54800        2.32100
H          8.24600        9.94700        2.64500
C          9.68200        8.33900        2.68000
H          9.31200        7.63100        3.41100
C         10.01000        5.19200        1.06000
O          9.81600        4.78300        2.19900
N          9.09000        4.98600        0.12600
H          8.26800        4.46400        0.37500
H          9.24000        5.29800       -0.82200
