60
0 1
H          9.89000        8.57700        1.07600
C          8.85600        8.49500        1.40600
H          8.34500        9.44400        1.25200
H          8.82500        8.23500        2.46200
C          8.16200        7.41600        0.61100
O          8.79700        6.70900       -0.16200
N          6.84400        7.31200        0.77200
H          6.39700        7.95100        1.42300
C          5.99400        6.28600        0.14600
H          6.35100        5.30600        0.46300
C          4.53800        6.45100        0.62600
H          4.18100        7.45900        0.40200
H          3.92300        5.75500        0.05300
C          4.30800        6.12900        2.11700
H          3.25000        5.89500        2.24600
H          4.87300        5.23700        2.38800
C          4.64400        7.25300        3.09900
O          5.16100        8.30500        2.76300
N          4.37300        7.07200        4.37100
H          4.59800        7.83800        4.98100
H          3.94400        6.22500        4.69400
C          6.04500        6.28500       -1.39500
O          5.70600        5.28200       -2.01600
N          6.52900        7.36700       -2.01300
H          6.77000        8.16000       -1.43600
C          6.80200        7.47300       -3.45200
H          5.86900        7.31200       -3.99400
C          7.33000        8.88100       -3.78600
H          8.35700        8.97700       -3.43100
H          7.34900        8.97900       -4.87200
C          6.49200       10.04000       -3.22100
H          6.72100       10.93500       -3.80000
H          5.43700        9.81200       -3.37900
S          6.74200       10.44700       -1.46200
C          8.43000       11.11000       -1.49200
H          8.49100       11.92800       -2.21000
H          8.68900       11.48500       -0.50200
H          9.13600       10.32700       -1.77000
C          7.81600        6.43000       -3.96100
O          7.84600        6.15200       -5.15500
N          8.63600        5.85100       -3.07500
H          8.58000        6.14500       -2.10600
C          9.56100        4.75300       -3.39600
H         10.02500        4.96100       -4.36100
C         10.67300        4.69100       -2.33400
H         10.22700        4.48200       -1.36200
H         11.35600        3.87800       -2.58200
C         11.48500        5.99200       -2.25900
H         11.85800        6.21800       -3.25800
H         10.83300        6.81000       -1.95100
S         12.90900        5.94600       -1.13400
C         12.06900        5.82300        0.46800
H         12.81000        5.83800        1.26700
H         11.39000        6.66700        0.59000
H         11.50400        4.89300        0.52100
C          8.87100        3.37900       -3.53200
O          9.52100        2.39000       -3.84900
N          7.57100        3.26200       -3.28500
H          7.14600        2.35800       -3.39400
H          7.02400        4.06900       -3.01700
