60
0 1
H          6.00300        9.08000        3.65900
C          5.75700        8.60200        2.71100
H          5.42100        9.35400        1.99900
H          4.96900        7.86700        2.86900
C          6.98500        7.91100        2.17200
O          8.04100        7.95000        2.79800
N          6.85300        7.28400        1.00500
H          5.96400        7.33100        0.53000
C          7.93300        6.56900        0.31500
H          8.88500        6.83700        0.77200
C          7.74700        5.05000        0.45600
H          6.72800        4.78600        0.16800
H          8.42600        4.55000       -0.23300
C          8.02100        4.52700        1.87600
H          7.39700        5.05300        2.59900
H          7.75400        3.47100        1.91500
C          9.49000        4.65700        2.26900
O         10.30900        3.80400        1.97000
N          9.89200        5.73500        2.90300
H         10.87300        5.80300        3.10600
H          9.25200        6.50300        3.08000
C          8.02900        6.99600       -1.15300
O          7.02400        7.10400       -1.84900
N          9.25300        7.27800       -1.59500
H         10.01300        7.18900       -0.92600
C          9.55100        8.05700       -2.80300
H          8.66600        8.63200       -3.08300
C         10.68700        9.05400       -2.48200
H         11.59900        8.50100       -2.24800
H         10.88300        9.64000       -3.38100
C         10.38300       10.04600       -1.33500
H         11.15600       10.81400       -1.32500
H          9.43200       10.53800       -1.54300
C         10.33100        9.42200        0.06400
O         10.92900        8.39600        0.34900
N          9.55300        9.96400        0.97400
H          9.04700       10.80900        0.78500
H          9.46900        9.46500        1.84900
C          9.90600        7.18400       -4.02000
O          9.99300        7.68700       -5.13500
N         10.11600        5.88100       -3.80900
H         10.01400        5.54000       -2.86500
C         10.42400        4.88100       -4.84200
H         10.94300        5.36400       -5.67200
C         11.37000        3.83100       -4.23100
H         11.46000        2.98100       -4.90800
H         12.36000        4.27800       -4.13100
C         10.93600        3.33300       -2.87300
N          9.79900        2.56800       -2.61600
C          9.76200        2.39200       -1.28800
H          8.99500        1.83700       -0.76300
N         10.78300        3.03800       -0.70100
H         10.91900        3.11700        0.30900
C         11.53600        3.63900       -1.68500
H         12.42200        4.24400       -1.55000
C          9.17800        4.22200       -5.46200
O          9.28400        3.52200       -6.46100
N          7.98500        4.44400       -4.92400
H          7.18600        4.00100       -5.34500
H          7.90000        5.02400       -4.10800
