64
0 1
H          2.91800       14.77600       -7.94600
C          3.77700       14.10700       -7.91900
H          4.60200       14.60000       -7.41100
H          4.07000       13.85300       -8.93600
C          3.40100       12.85400       -7.16600
O          2.32500       12.77900       -6.58500
N          4.27600       11.84900       -7.18600
H          5.12700       11.97200       -7.71500
C          4.05500       10.56500       -6.49800
H          3.60500       10.79400       -5.53300
C          3.05500        9.71100       -7.31300
H          2.32700       10.35300       -7.81100
H          3.60000        9.18700       -8.10000
C          2.27700        8.68100       -6.47200
H          1.71900        8.04600       -7.16000
H          2.97900        8.04700       -5.93100
C          1.27100        9.25400       -5.46800
O          0.78100        8.55300       -4.59800
N          0.93600       10.52800       -5.47000
H          1.35300       11.20300       -6.10500
H          0.23400       10.80500       -4.80900
C          5.37800        9.83500       -6.18300
O          5.48700        8.61800       -6.29700
N          6.42400       10.59800       -5.85100
H          6.27300       11.59000       -5.75500
C          7.81800       10.12600       -5.79000
H          8.04600        9.63300       -6.73600
C          8.74000       11.34800       -5.65800
H          8.68900       11.71600       -4.63200
H          9.76900       11.03600       -5.84300
C          8.38800       12.47900       -6.60900
C          8.59400       12.32200       -7.99400
H          9.05000       11.41500       -8.37100
C          8.20400       13.33800       -8.88800
H          8.36200       13.21400       -9.94900
C          7.60800       14.51800       -8.39400
O          7.21300       15.49800       -9.24600
H          7.58600       15.39000      -10.12200
C          7.40400       14.67500       -7.00700
H          6.95600       15.58800       -6.64000
C          7.79100       13.65700       -6.11600
H          7.63700       13.78600       -5.05300
C          8.10800        9.09500       -4.68300
O          9.12200        8.40700       -4.73500
N          7.21300        8.96900       -3.70200
H          6.40900        9.58500       -3.71200
C          7.20300        7.92100       -2.67400
H          8.21500        7.77500       -2.29400
C          6.30200        8.40700       -1.52800
H          6.20700        7.62300       -0.77600
H          6.77400        9.26700       -1.05200
C          4.92700        8.82300       -1.99600
N          4.61000       10.06900       -2.54700
C          3.31500        9.99400       -2.88800
H          2.74900       10.80000       -3.33800
N          2.83100        8.76700       -2.63800
H          1.90700        8.44300       -2.92300
C          3.83400        8.01200       -2.07400
H          3.78800        6.97000       -1.78400
C          6.72200        6.54800       -3.18400
O          6.76500        5.57200       -2.44600
N          6.23500        6.42900       -4.41300
H          5.93400        5.52100       -4.72100
H          6.16800        7.23600       -5.01800
