60
0 1
H          5.67100       13.78400       -0.48000
C          5.09700       12.95700       -0.06600
H          4.24300       12.74800       -0.70900
H          4.74800       13.21200        0.93300
C          5.97100       11.72800        0.00700
O          5.66000       10.71300       -0.60700
N          7.06700       11.81900        0.75800
H          7.24100       12.68400        1.24900
C          8.03200       10.73500        0.96600
H          7.52000        9.77600        0.87100
C          9.17000       10.81000       -0.07700
H          9.51900       11.84100       -0.14700
H         10.01000       10.20500        0.27000
C          8.80000       10.31300       -1.48300
H          7.96000       10.88300       -1.87700
H          9.65000       10.47900       -2.14500
C          8.47800        8.82200       -1.49300
O          9.35600        7.97500       -1.54500
N          7.22400        8.44800       -1.39500
H          7.04600        7.46300       -1.32900
H          6.49600        9.14700       -1.26800
C          8.64000       10.77000        2.37200
O          8.84500       11.83100        2.95700
N          9.04000        9.59400        2.85000
H          8.75600        8.78400        2.30800
C          9.87300        9.30400        4.02900
H          9.39500        9.77600        4.88800
C          9.85600        7.77200        4.26000
H         10.33000        7.57000        5.22200
H          8.82000        7.44000        4.34600
C         10.57000        6.90700        3.19100
H         11.61200        7.21500        3.11400
H         10.56400        5.86900        3.52500
C          9.92800        6.95100        1.80300
O          8.72500        7.09500        1.64800
N         10.69700        6.91200        0.74000
H         11.68900        6.79600        0.81200
H         10.23100        7.05300       -0.15700
C         11.31600        9.87100        3.96400
O         12.22700        9.33600        4.58900
N         11.55000       10.93600        3.19300
H         10.73500       11.40500        2.81700
C         12.86400       11.51500        2.86600
H         13.55300       10.68400        2.71100
C         12.75600       12.26800        1.52600
H         13.75300       12.58600        1.21900
H         12.38200       11.57700        0.76900
C         11.82900       13.49300        1.57000
H         10.86200       13.18900        1.96800
H         12.24700       14.24100        2.24400
S         11.52800       14.26900       -0.04200
C         13.15200       15.01400       -0.35400
H         13.90800       14.23500       -0.44400
H         13.11500       15.58600       -1.28100
H         13.41300       15.68000        0.46900
C         13.48900       12.36600        3.99500
O         14.18800       13.34000        3.74400
N         13.24400       12.03900        5.25600
H         12.73000       11.19300        5.45600
H         13.65100       12.59900        5.98600
