59
0 1
H         10.67000        8.72700        0.26900
C         10.38500        8.25500       -0.67000
H          9.33500        8.45300       -0.87900
H         10.55700        7.18200       -0.60600
C         11.22600        8.82500       -1.78600
O         10.70100        9.42400       -2.71600
N         12.54100        8.63100       -1.70300
H         12.89400        8.11600       -0.90200
C         13.52600        9.20000       -2.63400
H         13.40400       10.28400       -2.64100
C         14.95300        8.87600       -2.15000
H         15.08000        7.79600       -2.05200
H         15.64600        9.21500       -2.92100
C         15.36300        9.57800       -0.83800
H         16.45200        9.59000       -0.79300
H         15.02600       10.61400       -0.86100
C         14.86500        8.91700        0.44900
O         14.16200        7.92100        0.46400
N         15.20400        9.45700        1.59800
H         14.86600        8.98700        2.42000
H         15.78300       10.27500        1.63500
C         13.34400        8.73700       -4.09200
O         13.77500        9.43200       -5.00900
N         12.65700        7.61400       -4.32700
H         12.27100        7.11500       -3.53400
C         12.25900        7.14500       -5.66200
H         13.14300        7.08300       -6.29800
C         11.64600        5.74300       -5.52300
H         11.40900        5.35800       -6.51600
H         12.38300        5.07400       -5.07500
C         10.39700        5.71700       -4.67600
N         10.36400        5.83800       -3.28400
C          9.06600        5.83200       -2.94700
H          8.69400        5.92300       -1.93500
N          8.29400        5.73200       -4.04300
H          7.28200        5.77200       -4.04700
C          9.11700        5.66200       -5.14500
H          8.82200        5.60800       -6.18500
C         11.26900        8.08400       -6.37300
O         11.07100        7.95100       -7.57600
N         10.64500        9.02000       -5.65000
H         10.82300        9.04900       -4.65200
C          9.74300       10.04100       -6.19900
H          9.28200        9.64300       -7.10400
C          8.61200       10.33000       -5.19100
H          9.01700       10.85700       -4.32500
H          7.87400       10.97400       -5.67100
C          7.92000        9.03900       -4.72000
H          7.63700        8.44600       -5.58900
H          8.61700        8.45900       -4.11900
C          6.67400        9.26200       -3.87300
O          6.18100       10.33700       -3.57100
O          6.08300        8.13100       -3.43400
H          5.32700        8.45400       -2.93900
C         10.47500       11.33300       -6.61800
O          9.85000       12.27700       -7.08700
N         11.79200       11.42300       -6.45900
H         12.24900       12.27100       -6.74700
H         12.31600       10.64800       -6.07800
