59
0 1
H         12.11200        0.63800       12.79100
C         11.04900        0.49100       12.60700
H         10.47400        0.81000       13.47500
H         10.85500       -0.56000       12.40300
C         10.63200        1.30900       11.40900
O          9.72500        2.12900       11.50800
N         11.31100        1.09700       10.28500
H         12.07600        0.43200       10.31200
C         11.04300        1.75000        9.00200
H         10.82200        2.80200        9.19200
C         12.28900        1.67900        8.09900
H         12.57000        0.63800        7.93100
H         12.02500        2.10500        7.13000
C         13.49900        2.47200        8.63100
H         14.18400        2.64200        7.80100
H         13.16200        3.44700        8.98300
C         14.29600        1.78400        9.74300
O         14.09900        0.63400       10.10000
N         15.24200        2.46800       10.34500
H         15.74800        1.97600       11.06100
H         15.43800        3.41600       10.08600
C          9.82600        1.15000        8.27400
O          9.54900       -0.04400        8.35700
N          9.12500        1.99200        7.51400
H          9.43600        2.95900        7.51400
C          7.91600        1.65400        6.74300
H          8.03600        0.63400        6.37300
C          6.67000        1.66100        7.66100
H          5.80000        1.39500        7.05900
H          6.78100        0.87400        8.40900
C          6.37100        2.99600        8.37200
H          6.39800        3.81700        7.65600
H          5.36900        2.94400        8.79700
C          7.34800        3.27900        9.51100
O          8.19400        4.16600        9.48900
O          7.28100        2.40600       10.53500
H          8.10700        2.49500       11.04700
C          7.73900        2.54000        5.48800
O          6.65200        2.62700        4.92300
N          8.80300        3.22100        5.05000
H          9.66200        3.12000        5.57700
C          8.83600        4.18100        3.93600
H          7.91900        4.77100        3.97100
C         10.02800        5.14900        4.12700
H         10.95200        4.57600        4.22800
H         10.11900        5.76300        3.23000
C          9.89200        6.12600        5.31300
H         10.71600        6.83800        5.27400
H          8.96600        6.68800        5.19100
C          9.90400        5.47800        6.69700
O         10.50100        4.43800        6.93700
N          9.20000        6.03700        7.65200
H          9.10100        5.51100        8.51900
H          8.69200        6.88700        7.49700
C          8.84100        3.49000        2.55100
O          9.65100        3.79100        1.68300
N          7.95900        2.52700        2.32300
H          7.27900        2.29600        3.03500
H          7.96800        2.06800        1.42700
