66
0 1
H          5.60200        9.68900       -0.95000
C          6.14700       10.47200       -0.42600
H          5.46000       11.26100       -0.12400
H          6.91000       10.88400       -1.07900
C          6.80800        9.89500        0.79900
O          6.69200       10.45500        1.88000
N          7.51800        8.78100        0.64000
H          7.60300        8.40200       -0.29800
C          8.09800        8.00500        1.74900
H          7.30000        7.75500        2.44900
C          8.70300        6.69300        1.21000
H          9.49600        6.91500        0.49300
H          9.16300        6.17500        2.05200
C          7.68300        5.72100        0.58200
H          8.11300        4.72000        0.61500
H          6.77500        5.70700        1.18500
C          7.31500        6.00700       -0.87600
O          7.73200        6.97000       -1.49600
N          6.49800        5.17900       -1.48700
H          6.28800        5.39600       -2.44500
H          6.13100        4.37300       -1.01600
C          9.16200        8.77200        2.55900
O          9.43200        8.42700        3.70500
N          9.75900        9.81200        1.97500
H          9.48100       10.03800        1.03200
C         10.71300       10.72000        2.62500
H         11.31900       10.16600        3.34300
C         11.62500       11.28800        1.52900
H         12.37900       11.93000        1.98800
H         12.14800       10.46600        1.03900
C         10.88200       12.07500        0.49100
C         10.57300       13.38600        0.59500
H         10.85900       14.02800        1.42100
N          9.74800       13.75300       -0.44600
H          9.28300       14.65600       -0.46900
C          9.50700       12.69900       -1.30200
C          8.74900       12.56700       -2.47500
H          8.23000       13.42000       -2.88500
C          8.67800       11.31300       -3.10500
H          8.10200       11.19300       -4.01300
C          9.34600       10.20800       -2.54600
H          9.27800        9.24000       -3.02700
C         10.10600       10.35200       -1.36900
H         10.62700        9.49800       -0.96200
C         10.21400       11.60300       -0.72100
C         10.04300       11.88600        3.38000
O         10.72500       12.61100        4.10100
N          8.73900       12.12200        3.19000
H          8.20500       11.45200        2.64900
C          8.04100       13.35600        3.58600
H          8.73900       14.17700        3.42200
C          6.84400       13.56900        2.63200
H          7.12500       13.26300        1.62300
H          6.02900       12.91800        2.95300
C          6.31600       15.01500        2.56000
H          5.34800       15.00200        2.06100
H          6.15700       15.41500        3.56000
C          7.21600       15.97600        1.78400
O          8.17200       15.67100        1.08000
O          6.87500       17.27400        1.88800
H          7.51700       17.75600        1.36600
C          7.66600       13.40100        5.08900
O          6.61300       13.89400        5.47700
N          8.49700       12.86300        5.97100
H          9.38400       12.49800        5.65400
H          8.24300       12.87600        6.94400
