59
0 1
H         -0.09900        6.94500        5.66500
C          0.45300        6.95600        6.60400
H          1.44400        6.52900        6.45900
H         -0.09200        6.37800        7.34800
C          0.58100        8.38100        7.08300
O          0.07000        8.72200        8.14700
N          1.26400        9.21700        6.30000
H          1.64500        8.86100        5.43800
C          1.39000       10.65400        6.55600
H          1.39400       10.81600        7.63600
C          2.74200       11.16400        6.02000
H          3.54200       10.59500        6.49900
H          2.79700       10.99600        4.94300
C          2.95600       12.66200        6.30900
H          2.18300       13.24700        5.81300
H          2.88000       12.82700        7.38300
C          4.31200       13.19200        5.84800
O          5.24200       12.46200        5.55400
N          4.48700       14.49400        5.77400
H          3.74000       15.14700        5.98700
H          5.39000       14.79800        5.46300
C          0.19500       11.42300        5.96700
O          0.18600       11.78400        4.79500
N         -0.79900       11.72700        6.80200
H         -0.75600       11.35700        7.74300
C         -1.87100       12.68800        6.48500
H         -2.19900       12.53300        5.45600
C         -3.07200       12.46200        7.42800
H         -2.74700       12.58000        8.46300
H         -3.80900       13.24200        7.22800
C         -3.78500       11.10200        7.25800
H         -4.65800       11.09100        7.90900
H         -4.12600       11.00500        6.22700
C         -2.93000        9.88400        7.60700
O         -2.80300        8.90100        6.89400
O         -2.20400        9.99200        8.74200
H         -1.55800        9.26500        8.69700
C         -1.36800       14.14400        6.59300
O         -2.03000       15.08600        6.16400
N         -0.19200       14.32400        7.19800
H          0.24100       13.48900        7.57200
C          0.47300       15.57400        7.55900
H         -0.28600       16.26700        7.92400
C          1.45600       15.27900        8.71700
H          2.39400       14.90200        8.31000
H          1.67900       16.21000        9.23800
C          0.96900       14.24600        9.71300
N          0.89100       12.86900        9.46700
C          0.38100       12.32000       10.57900
H          0.19700       11.26100       10.71300
N          0.13100       13.27200       11.49500
H         -0.25100       13.10700       12.41600
C          0.49300       14.49300       10.96700
H          0.41500       15.46200       11.44100
C          1.14500       16.23600        6.34000
O          2.35900       16.40600        6.28700
N          0.37600       16.55500        5.31000
H         -0.61200       16.34000        5.34300
H          0.80300       16.95300        4.49000
