64
0 1
H          8.34300        9.24800        5.79300
C          8.76400        8.90900        4.84800
H          8.80600        7.82200        4.82700
H          9.76900        9.31400        4.73300
C          7.90400        9.40200        3.70900
O          8.37500       10.14100        2.85300
N          6.63400        8.99800        3.69700
H          6.31100        8.41600        4.45200
C          5.66000        9.42400        2.68400
H          6.15400        9.41300        1.71100
C          4.48000        8.43800        2.61600
H          3.97300        8.38800        3.58100
H          3.77100        8.82500        1.88100
C          4.90100        7.02300        2.18500
H          5.75200        7.08500        1.50600
H          5.20200        6.44900        3.06100
C          3.77500        6.29500        1.45800
O          3.82800        6.06200        0.26200
N          2.69500        5.95100        2.12400
H          2.59800        6.16300        3.09900
H          1.97500        5.49400        1.59100
C          5.18900       10.87200        2.90900
O          4.07500       11.11100        3.37300
N          6.03500       11.84400        2.56300
H          6.95800       11.56900        2.24700
C          5.70300       13.27700        2.56700
H          5.41200       13.56800        3.57700
C          6.95600       14.07400        2.16800
H          6.74800       15.13600        2.30500
H          7.77300       13.81600        2.84300
C          7.40400       13.84600        0.73300
C          8.28400       12.79000        0.42200
H          8.69100       12.16900        1.21000
C          8.62900       12.52800       -0.91800
H          9.29200       11.71000       -1.15300
C          8.09900       13.33100       -1.95100
O          8.41500       13.07600       -3.24700
H          8.86200       12.23500       -3.34400
C          7.23800       14.40200       -1.63800
H          6.84100       15.01100       -2.43700
C          6.89200       14.65900       -0.29800
H          6.21200       15.46800       -0.06400
C          4.52400       13.61600        1.63100
O          3.80300       14.58100        1.86300
N          4.31000       12.80100        0.59400
H          4.99100       12.07000        0.42700
C          3.16800       12.83800       -0.32400
H          2.93900       13.87700       -0.56400
C          3.58800       12.11500       -1.61300
H          2.75900       12.11400       -2.32100
H          4.41000       12.66600       -2.07200
C          4.04700       10.69400       -1.38100
N          5.32500       10.32000       -0.95200
C          5.30100        8.98300       -0.86300
H          6.14300        8.37200       -0.56800
N          4.07700        8.51200       -1.15100
H          3.79900        7.53400       -1.06400
C          3.27000        9.57800       -1.48000
H          2.22300        9.55400       -1.75100
C          1.87400       12.22700        0.25200
O          0.87600       12.11900       -0.45100
N          1.84900       11.78500        1.50300
H          2.66900       11.85800        2.08900
H          0.98900       11.40400        1.85600
