59
0 1
H         21.91000       17.14500        6.33100
C         21.82200       16.17100        5.85200
H         22.65700       15.54000        6.15400
H         21.81900       16.29400        4.77100
C         20.52900       15.52400        6.28700
O         19.77900       16.10900        7.06500
N         20.26400       14.32100        5.77800
H         20.94900       13.89700        5.17500
C         19.10200       13.52200        6.18100
H         18.23300       14.17800        6.16200
C         18.84800       12.36600        5.19700
H         19.76600       11.78900        5.07100
H         18.09500       11.69700        5.61600
C         18.35300       12.84000        3.81900
H         19.15600       13.38200        3.32000
H         18.11500       11.96200        3.22000
C         17.11400       13.73700        3.86400
O         17.04800       14.75900        3.20800
N         16.10500       13.45000        4.65900
H         15.33100       14.08800        4.63100
H         16.10000       12.64300        5.27200
C         19.21100       13.00500        7.62200
O         20.29600       12.82600        8.16800
N         18.05100       12.74800        8.22400
H         17.20600       12.84100        7.67200
C         17.86600       12.45600        9.65100
H         18.84200       12.48500       10.13800
C         16.98400       13.54800       10.30500
H         15.93300       13.27300       10.21200
H         17.21400       13.55800       11.37100
C         17.17300       14.98100        9.75700
H         16.77000       15.68600       10.48300
H         18.23800       15.19100        9.65100
C         16.45400       15.23600        8.42600
O         15.41100       14.67400        8.11900
N         17.00000       16.04100        7.54500
H         17.95500       16.37200        7.66300
H         16.50600       16.18600        6.68400
C         17.30100       11.03700        9.87300
O         16.67400       10.75400       10.89000
N         17.44300       10.15700        8.87500
H         18.01800       10.43000        8.09100
C         16.76700        8.86200        8.77300
H         16.43300        8.55300        9.76500
C         15.53300        8.96000        7.84800
H         15.85900        9.13100        6.82000
H         15.03200        7.99100        7.87000
C         14.49100       10.02900        8.23500
H         13.53400        9.75900        7.78900
H         14.35900       10.03200        9.31800
C         14.82200       11.44800        7.76300
O         15.68600       11.74700        6.94100
O         14.07100       12.40400        8.34400
H         14.45100       13.27600        8.12500
C         17.73400        7.79500        8.24000
O         18.56300        8.07000        7.38000
N         17.62300        6.55700        8.70400
H         16.94300        6.33500        9.41200
H         18.25600        5.86100        8.34600
