66
0 1
H          2.08200        3.05500       -2.60300
C          1.29600        3.39800       -1.93100
H          1.12300        2.66000       -1.14900
H          0.38000        3.55400       -2.49800
C          1.71500        4.70800       -1.30900
O          1.08500        5.73200       -1.54100
N          2.78300        4.67900       -0.51300
H          3.25800        3.80100       -0.38400
C          3.40500        5.88500        0.04400
H          2.62700        6.63600        0.19000
C          4.01200        5.57200        1.43000
H          3.36700        4.85400        1.94000
H          4.98600        5.09700        1.31000
C          4.14700        6.79100        2.36300
H          3.15000        7.08800        2.68800
H          4.70300        6.49000        3.25200
C          4.81000        8.01800        1.74100
O          4.22100        8.71000        0.92600
N          6.02600        8.34700        2.11700
H          6.44700        9.16500        1.68700
H          6.53900        7.77700        2.76000
C          4.41400        6.45900       -0.96900
O          5.62400        6.28300       -0.83200
N          3.91200        7.10200       -2.02400
H          2.90400        7.17700       -2.10400
C          4.72600        7.59800       -3.14400
H          5.38700        6.79300       -3.46600
C          3.79900        7.95300       -4.31400
H          3.31000        8.90300       -4.09300
H          4.40600        8.09800       -5.20900
C          2.73800        6.93800       -4.61700
C          1.41200        7.12100       -4.43100
H          0.96400        8.02800       -4.04000
N          0.73100        5.96800       -4.76500
H         -0.26600        5.86500       -4.64800
C          1.59000        4.97100       -5.17400
C          1.39000        3.64300       -5.57900
H          0.39400        3.23200       -5.62600
C          2.50500        2.86000       -5.92400
H          2.37200        1.83500       -6.24400
C          3.79700        3.41300       -5.85700
H          4.65300        2.80800       -6.12600
C          3.98500        4.74800       -5.44700
H          4.98100        5.16100       -5.40000
C          2.88700        5.56400       -5.09600
C          5.62400        8.79600       -2.79100
O          6.56200        9.10100       -3.52600
N          5.36300        9.47900       -1.67400
H          4.61700        9.13500       -1.07900
C          6.11400       10.64600       -1.20600
H          6.44800       11.20400       -2.08200
C          5.20800       11.58700       -0.38300
H          4.98000       11.14500        0.58700
H          5.77200       12.50200       -0.19600
C          3.89300       11.97400       -1.08800
H          3.55800       12.93000       -0.68700
H          4.06300       12.09600       -2.15800
C          2.77400       10.95800       -0.86000
O          2.44700       10.07800       -1.64600
O          2.12500       11.07400        0.31400
H          1.53800       10.31900        0.34500
C          7.38300       10.20500       -0.45100
O          7.53300       10.41900        0.74900
N          8.29400        9.52000       -1.12900
H          9.11200        9.18800       -0.64800
H          8.11900        9.29800       -2.10000
