60
0 1
H         10.48100        9.19700       -2.11200
C         10.38500       10.22400       -1.76300
H         10.43800       10.90700       -2.60900
H         11.18700       10.44600       -1.06000
C          9.05600       10.39000       -1.06700
O          9.01300       10.69200        0.12100
N          7.96700       10.17000       -1.80200
H          8.09100        9.90300       -2.77500
C          6.59200       10.21800       -1.27900
H          6.47700       11.15800       -0.73900
C          5.58900       10.22700       -2.45400
H          4.64600       10.62600       -2.07800
H          5.94400       10.91700       -3.22100
C          5.27700        8.86400       -3.10800
H          4.77400        8.23200       -2.37800
H          4.58000        9.02100       -3.93000
C          6.49500        8.12400       -3.65900
O          7.44400        8.70900       -4.15500
N          6.54200        6.81600       -3.56200
H          7.35500        6.36100       -3.93700
H          5.79900        6.29700       -3.10300
C          6.28900        9.08500       -0.28000
O          5.43700        9.24100        0.59300
N          7.01600        7.96700       -0.37600
H          7.72300        7.93200       -1.09700
C          6.98000        6.83400        0.55000
H          6.38500        7.09400        1.42600
C          6.34300        5.61400       -0.13700
H          6.98500        5.29800       -0.96000
H          6.29600        4.79400        0.58000
C          4.95300        5.84300       -0.68200
N          4.48700        5.37400       -1.91300
C          3.20200        5.74900       -1.99100
H          2.54700        5.52600       -2.82400
N          2.84600        6.43600       -0.89200
H          1.93100        6.82200       -0.71100
C          3.93500        6.49900       -0.05200
H          3.98500        6.98000        0.91600
C          8.41100        6.54200        1.00800
O          9.30000        6.36900        0.17700
N          8.63800        6.56400        2.32100
H          7.85400        6.76900        2.92600
C          9.97800        6.69600        2.91400
H         10.68100        6.10900        2.32100
C         10.41300        8.18000        2.83700
H         11.46200        8.23700        3.13000
H         10.35700        8.50800        1.79700
C          9.62900        9.18800        3.70700
H          9.80000        8.96700        4.76100
H         10.01800       10.18800        3.51400
C          8.12400        9.18900        3.44700
O          7.36800        8.45100        4.06300
N          7.64100        9.91500        2.46700
H          6.65600        9.82900        2.26100
H          8.26200       10.41000        1.83200
C         10.06700        6.17000        4.35900
O         11.11600        5.70700        4.78500
N          8.99000        6.20200        5.13700
H          9.07300        5.84400        6.07300
H          8.15200        6.67500        4.82900
