60
0 1
H          4.16500        8.96500       -2.57200
C          3.98100        7.89200       -2.55200
H          4.15800        7.46600       -3.53700
H          2.95000        7.70400       -2.26100
C          4.89400        7.25500       -1.53100
O          5.16300        7.85100       -0.49500
N          5.37500        6.04600       -1.81400
H          5.18300        5.66200       -2.73300
C          6.16700        5.22100       -0.89300
H          5.54000        5.03200       -0.02100
C          6.44300        3.83900       -1.53300
H          6.79200        3.17100       -0.74500
H          5.49300        3.43800       -1.88900
C          7.46000        3.75900       -2.69100
H          8.46700        3.87100       -2.29100
H          7.40700        2.76400       -3.13300
C          7.23600        4.78200       -3.80400
O          6.14500        4.94400       -4.32700
N          8.24500        5.53200       -4.18000
H          8.06100        6.24400       -4.86700
H          9.09300        5.52600       -3.64100
C          7.43100        5.94900       -0.39200
O          8.41400        6.10500       -1.11400
N          7.37900        6.42700        0.85700
H          6.51700        6.28500        1.36100
C          8.40400        7.25600        1.51300
H          7.99100        7.54500        2.47900
C          9.68100        6.43900        1.81300
H         10.16900        6.15600        0.88200
H         10.37400        7.08500        2.35400
C          9.46200        5.19200        2.68800
H         10.43800        4.87200        3.05500
H          8.87300        5.48500        3.55800
S          8.66900        3.73800        1.93000
C          9.89200        3.29400        0.66700
H          9.57800        2.37800        0.16600
H          9.97200        4.09200       -0.07100
H         10.86300        3.13200        1.13600
C          8.71200        8.59500        0.80400
O          9.66000        9.28100        1.18100
N          7.91400        9.00900       -0.18800
H          7.09200        8.45300       -0.39400
C          8.13700       10.21800       -0.99900
H          9.21500       10.35800       -1.09300
C          7.59000       10.02700       -2.42700
H          6.50600        9.91300       -2.39800
H          7.83000       10.91900       -3.00800
C          8.21600        8.81400       -3.12700
H          9.27100        8.76800       -2.85500
H          7.73600        7.90900       -2.75700
S          8.13000        8.82300       -4.94100
C          6.35500        8.58100       -5.20300
H          5.79600        9.38100       -4.71700
H          6.14200        8.59400       -6.27200
H          6.05500        7.61700       -4.79200
C          7.61000       11.49700       -0.32000
O          6.87300       12.28400       -0.90300
N          7.95200       11.71500        0.94300
H          7.60600       12.54100        1.40000
H          8.58100       11.06900        1.40000
