59
0 1
H         14.97800        7.39800       -6.95600
C         15.57900        8.26000       -7.24300
H         16.22500        7.99600       -8.07800
H         16.18300        8.58400       -6.39800
C         14.65800        9.38300       -7.65400
O         14.59100       10.40300       -6.97800
N         13.94600        9.18700       -8.76200
H         14.08600        8.31100       -9.25400
C         13.01000       10.14800       -9.37000
H         13.42800       11.14300       -9.21200
C         12.96300        9.91800      -10.89800
H         12.58400       10.83500      -11.35300
H         13.97900        9.77900      -11.27000
C         12.07700        8.76100      -11.41000
H         11.04300        8.94100      -11.11800
H         12.10300        8.76800      -12.49900
C         12.48100        7.36000      -10.95000
O         13.60300        7.08200      -10.56300
N         11.57500        6.40900      -10.97000
H         10.64200        6.59300      -11.28700
H         11.88500        5.50000      -10.67300
C         11.60300       10.17000       -8.72900
O         10.67900       10.77900       -9.26800
N         11.41100        9.49700       -7.59000
H         12.23000        9.08800       -7.15300
C         10.13300        9.30600       -6.87600
H          9.39000        8.93900       -7.58500
C         10.35200        8.22700       -5.80200
H          9.43300        8.06100       -5.23900
H         10.61500        7.28800       -6.29100
C         11.46400        8.59300       -4.85200
N         12.81900        8.36900       -5.09700
C         13.47700        9.00900       -4.11900
H         14.55500        9.05500       -4.03600
N         12.61200        9.62000       -3.29100
H         12.87000       10.21400       -2.51600
C         11.33500        9.37600       -3.74300
H         10.40800        9.78100       -3.35600
C          9.52900       10.58300       -6.25200
O          8.59300       10.49900       -5.46100
N         10.05700       11.75900       -6.58800
H         10.82800       11.74200       -7.24500
C          9.62900       13.07800       -6.10700
H          8.62300       12.97700       -5.69800
C         10.55300       13.53300       -4.95500
H         10.05900       14.35400       -4.43300
H         10.65800       12.71400       -4.24200
C         11.95800       14.02000       -5.36500
H         11.87300       14.90900       -5.98900
H         12.50600       14.29900       -4.46500
C         12.76200       12.97100       -6.12600
O         12.65900       12.76300       -7.32800
O         13.57600       12.21300       -5.36400
H         13.98800       11.56600       -5.97400
C          9.52500       14.12200       -7.23900
O          9.29300       15.29700       -6.98000
N          9.70400       13.74100       -8.50000
H          9.91500       12.77700       -8.72000
H          9.64800       14.43900       -9.22200
