60
0 1
H         -8.92100       12.11500       -2.32400
C         -8.19400       12.87300       -2.60900
H         -8.40500       13.80000       -2.07800
H         -8.24600       13.04500       -3.68300
C         -6.80800       12.39300       -2.24900
O         -6.63700       11.25600       -1.82400
N         -5.81300       13.26600       -2.40800
H         -6.04800       14.19300       -2.72600
C         -4.39000       12.94200       -2.22400
H         -4.13300       12.14600       -2.92500
C         -3.56800       14.19000       -2.59400
H         -3.83000       14.47600       -3.61500
H         -3.83700       15.01100       -1.92700
C         -2.04600       13.97000       -2.52300
H         -1.74500       13.82600       -1.48600
H         -1.78900       13.07200       -3.08400
C         -1.24100       15.13600       -3.09300
O         -1.75700       16.14400       -3.54200
N          0.07000       15.04600       -3.09700
H          0.53300       14.23600       -2.73000
H          0.55900       15.83700       -3.47800
C         -4.04000       12.42200       -0.81500
O         -3.08800       11.65800       -0.66500
N         -4.82800       12.76700        0.20800
H         -5.62300       13.36800        0.01900
C         -4.67200       12.26000        1.57800
H         -3.63900       12.44100        1.87500
C         -5.57600       13.06100        2.54000
H         -5.20300       12.89200        3.55100
H         -5.46500       14.12700        2.33500
C         -7.07500       12.69400        2.54300
H         -7.19000       11.63500        2.77200
H         -7.56000       13.24700        3.34800
C         -7.82700       13.01200        1.25200
O         -7.43300       13.83300        0.43900
N         -8.94600       12.36900        1.00500
H         -9.29500       11.67900        1.64500
H         -9.41700       12.59700        0.14900
C         -4.90000       10.74000        1.71300
O         -4.57000       10.17400        2.75000
N         -5.45900       10.07500        0.69400
H         -5.73400       10.59600       -0.13200
C         -5.58500        8.61000        0.64100
H         -5.80900        8.24400        1.64400
C         -6.75500        8.21700       -0.27700
H         -6.51700        8.50400       -1.30100
H         -6.88300        7.13400       -0.24100
C         -8.07700        8.87600        0.14400
H         -8.22400        8.69500        1.20900
H         -8.00000        9.95100       -0.00700
S         -9.55800        8.29000       -0.72500
C         -9.14100        8.71700       -2.43700
H         -8.29800        8.11400       -2.77300
H         -9.99900        8.51800       -3.07900
H         -8.87800        9.77200       -2.50000
C         -4.29000        7.89900        0.19600
O         -4.23300        6.67600        0.17100
N         -3.23800        8.61900       -0.17800
H         -3.27700        9.62900       -0.17000
H         -2.40300        8.13200       -0.45500
