59
0 1
H          8.94300       10.98000       -3.04700
C          7.89300       10.91100       -3.32700
H          7.79100       11.05800       -4.40100
H          7.31900       11.66700       -2.79400
C          7.37400        9.54200       -2.96000
O          6.43900        9.42600       -2.17200
N          7.97600        8.50500       -3.53500
H          8.75200        8.68500       -4.16400
C          7.66300        7.10600       -3.23400
H          6.57600        7.02900       -3.16600
C          8.11100        6.19000       -4.39400
H          7.55400        5.25600       -4.30900
H          7.82200        6.65000       -5.34100
C          9.60900        5.82400       -4.44900
H          9.86100        5.23200       -3.57000
H          9.78100        5.19100       -5.31900
C         10.56000        7.01700       -4.54400
O         10.27300        8.03800       -5.14900
N         11.73000        6.93700       -3.95400
H         12.31500        7.74800       -4.00000
H         11.94800        6.13900       -3.36400
C          8.24600        6.66600       -1.88000
O          9.38100        6.98400       -1.53300
N          7.48900        5.86900       -1.12700
H          6.54400        5.69700       -1.44900
C          7.81800        5.42400        0.23600
H          8.34400        6.23900        0.73700
C          6.51000        5.16700        1.02500
H          5.87500        4.48400        0.45900
H          6.75800        4.68300        1.97100
C          5.71300        6.44500        1.37000
H          4.80800        6.16800        1.91000
H          6.32000        7.06300        2.03300
C          5.30900        7.27300        0.15100
O          4.84100        6.80400       -0.88100
O          5.59900        8.58500        0.25000
H          5.58400        8.95500       -0.65000
C          8.79900        4.22800        0.23800
O          8.60700        3.24800        0.95400
N          9.83500        4.28500       -0.60600
H          9.96700        5.14800       -1.12500
C         10.84200        3.23300       -0.78200
H         11.06700        2.81200        0.19900
C         10.25900        2.11700       -1.67200
H          9.33600        1.74800       -1.22500
H         10.01100        2.53400       -2.64900
C         11.20700        0.92800       -1.87800
H         10.66900        0.15400       -2.42500
H         12.03800        1.24900       -2.50700
S         11.89700        0.18600       -0.36800
C         10.38200       -0.33800        0.48200
H          9.80200       -0.99400       -0.16700
H         10.64600       -0.87700        1.39300
H          9.78300        0.53400        0.74900
C         12.14500        3.79900       -1.36800
O         12.12700        4.69000       -2.21200
N         13.29300        3.27900       -0.95800
H         14.15000        3.64200       -1.34300
H         13.29500        2.51900       -0.29500
