61
0 1
H          1.89100       12.92400       -6.16000
C          2.44200       12.39600       -5.38400
H          2.03700       12.65600       -4.40700
H          3.49500       12.67000       -5.42700
C          2.30400       10.90700       -5.59500
O          1.79100       10.20900       -4.73000
N          2.76300       10.42700       -6.74800
H          3.21100       11.07300       -7.38300
C          2.79500        9.01400       -7.15700
H          2.81500        8.37800       -6.27100
C          1.55300        8.66600       -8.00300
H          1.47200        9.38800       -8.81700
H          1.69200        7.68200       -8.45000
C          0.22800        8.65400       -7.22300
H          0.06900        9.61000       -6.72700
H         -0.58800        8.51600       -7.93400
C          0.15900        7.51900       -6.20700
O         -0.16200        6.38800       -6.53200
N          0.47900        7.74900       -4.95600
H          0.41400        6.98000       -4.31600
H          0.81900        8.66700       -4.67900
C          4.08200        8.74200       -7.95000
O          4.62700        9.66000       -8.56000
N          4.57600        7.49800       -7.93100
H          4.04100        6.78700       -7.44800
C          5.90600        7.13600       -8.46500
H          6.26100        7.92900       -9.12500
C          6.90200        6.99700       -7.29200
H          6.52300        6.22800       -6.61600
H          7.85500        6.64100       -7.68800
C          7.17200        8.27800       -6.47900
H          6.23300        8.68900       -6.10900
C          8.04600        7.94000       -5.27000
H          8.22100        8.83900       -4.67900
H          7.54100        7.20500       -4.64300
H          9.00300        7.53600       -5.60000
C          7.89800        9.34700       -7.29800
H          8.11100       10.21200       -6.67100
H          8.83300        8.94900       -7.69300
H          7.27000        9.67500       -8.12600
C          5.92300        5.85600       -9.31900
O          6.88500        5.61000      -10.04000
N          4.87000        5.03900       -9.25900
H          4.10500        5.31700       -8.66000
C          4.76600        3.71800       -9.89000
H          5.74000        3.23900       -9.77300
C          3.75600        2.85500       -9.10200
H          3.84700        1.83400       -9.47700
H          4.05000        2.82700       -8.05100
C          2.26500        3.24600       -9.19700
H          2.00000        3.50700      -10.22000
H          1.67900        2.36500       -8.93300
C          1.81400        4.37800       -8.27100
O          2.55200        5.18800       -7.71100
O          0.47600        4.44200       -8.12800
H          0.25500        5.16300       -7.50300
C          4.51200        3.74900      -11.41800
O          3.81500        2.90200      -11.96200
N          5.03800        4.73000      -12.13800
H          4.86800        4.74300      -13.13000
H          5.67300        5.38100      -11.69700
