67
0 1
H          7.27900       13.58300        0.34600
C          7.41700       12.68000        0.93900
H          6.51600       12.07400        0.89400
H          7.63200       12.95100        1.97100
C          8.57000       11.89000        0.37200
O          9.03700       12.19200       -0.71800
N          9.03400       10.88500        1.11400
H          8.58500       10.72300        2.00700
C         10.16300       10.00300        0.75700
H         10.28600       10.00800       -0.32600
C         11.47200       10.51700        1.39700
H         11.31300       10.64000        2.47000
H         12.25600        9.77100        1.26200
C         11.99200       11.84300        0.81800
H         11.22700       12.61600        0.88600
H         12.84100       12.17100        1.41700
C         12.46900       11.70100       -0.62500
O         13.54300       11.19500       -0.90400
N         11.68700       12.08400       -1.60700
H         10.73600       12.38500       -1.40900
H         12.05100       12.02000       -2.53900
C          9.85200        8.54000        1.13100
O         10.64100        7.84800        1.77100
N          8.63700        8.08700        0.81300
H          8.03200        8.69600        0.28500
C          8.05300        6.83400        1.31300
H          8.42500        6.67500        2.32500
C          6.52500        6.98600        1.42100
H          6.09900        6.81700        0.43100
H          6.14300        6.20300        2.07700
C          6.00600        8.31500        1.90600
C          4.87400        8.90100        1.45400
H          4.22400        8.47900        0.69600
N          4.67000       10.09800        2.10900
H          3.86800       10.69200        1.94500
C          5.67200       10.35600        3.01800
C          5.92100       11.43500        3.87700
H          5.23800       12.27100        3.91700
C          7.07000       11.41500        4.68500
H          7.27600       12.23600        5.35900
C          7.94300       10.31500        4.62800
H          8.82000       10.29500        5.26300
C          7.67600        9.23100        3.77000
H          8.35500        8.39200        3.75600
C          6.53600        9.22100        2.93200
C          8.50500        5.59500        0.51600
O          7.68700        4.80000        0.06000
N          9.81900        5.45300        0.32300
H         10.41300        6.15800        0.74600
C         10.47500        4.50400       -0.59500
H          9.92500        4.53300       -1.53700
C         11.90400        4.99500       -0.89400
H         12.52300        4.82200       -0.01200
H         12.31600        4.40600       -1.71400
C         12.01000        6.45400       -1.26800
N         11.27200        7.09500       -2.26600
C         11.74200        8.34900       -2.32300
H         11.38900        9.10700       -3.01000
N         12.71900        8.52700       -1.41800
H         13.24700        9.39100       -1.28100
C         12.90000        7.34300       -0.74100
H         13.62600        7.13800        0.03400
C         10.46000        3.02700       -0.13900
O         11.42400        2.29300       -0.32100
N          9.39400        2.55800        0.49200
H          9.39600        1.59800        0.79000
H          8.58100        3.15000        0.59100
