60
0 1
H         13.97600        6.61500       -2.34800
C         13.77100        7.05000       -3.32500
H         13.42100        6.28100       -4.01000
H         14.67900        7.50500       -3.71900
C         12.71100        8.11700       -3.18500
O         12.95600        9.27200       -3.50400
N         11.53300        7.72400       -2.70500
H         11.42500        6.76100       -2.42300
C         10.39300        8.61100       -2.44400
H         10.78400        9.57000       -2.09800
C          9.62200        8.87900       -3.75400
H          8.87600        9.65600       -3.57900
H         10.32900        9.29000       -4.47600
C          8.95500        7.65000       -4.40400
H          8.77100        7.87400       -5.45500
H          9.62900        6.79500       -4.36500
C          7.61400        7.27100       -3.78400
O          6.95800        8.06500       -3.13100
N          7.15900        6.05100       -3.96600
H          7.68500        5.37700       -4.48600
H          6.29000        5.80100       -3.50400
C          9.52900        8.03700       -1.30500
O          9.56000        6.83300       -1.04900
N          8.80800        8.89600       -0.57800
H          8.73300        9.85700       -0.89100
C          8.19500        8.57700        0.72200
H          8.91300        8.01200        1.31800
C          7.89600        9.89700        1.45200
H          7.46600        9.67500        2.43000
H          8.83200       10.43100        1.61400
C          6.95800       10.80500        0.69400
N          7.27800       11.47800       -0.48700
C          6.15900       12.11400       -0.86200
H          6.06900       12.71900       -1.75600
N          5.16800       11.88000        0.01500
H          4.22100       12.22200       -0.07200
C          5.65200       11.04900        1.00300
H          5.10900       10.64300        1.84500
C          6.92700        7.71200        0.65900
O          6.60300        7.04600        1.64000
N          6.20400        7.69500       -0.46200
H          6.55600        8.20800       -1.26600
C          5.01400        6.86000       -0.67500
H          4.50000        6.74700        0.28000
C          4.02600        7.54400       -1.64200
H          4.46100        7.61500       -2.63900
H          3.12800        6.93000       -1.70500
C          3.64300        8.95100       -1.16500
H          3.30100        8.89300       -0.13100
H          4.54100        9.56500       -1.18900
S          2.37800        9.81300       -2.14000
C          0.91600        8.79900       -1.79200
H          0.75500        8.74300       -0.71500
H          0.04400        9.25100       -2.26400
H          1.05600        7.79600       -2.19400
C          5.41600        5.44600       -1.12800
O          5.09200        4.99700       -2.22400
N          6.18600        4.74000       -0.31200
H          6.49600        3.82800       -0.60200
H          6.48300        5.15000        0.56300
