67
0 1
H         11.16200        3.51700        4.76200
C         10.66800        2.61500        5.11800
H         11.31500        2.10200        5.82900
H         10.45000        1.95500        4.28100
C          9.37900        2.99000        5.81100
O          9.20600        2.70800        6.99000
N          8.46900        3.62900        5.07800
H          8.67900        3.83300        4.11300
C          7.17200        4.07100        5.59500
H          6.85400        3.36700        6.36500
C          7.35600        5.45500        6.25400
H          8.00900        5.33500        7.12000
H          7.85800        6.12300        5.55200
C          6.06400        6.14500        6.72100
H          6.32100        6.95100        7.40800
H          5.57000        6.58400        5.85300
C          5.08500        5.20200        7.40600
O          3.97800        5.01900        6.94300
N          5.46100        4.48900        8.44200
H          6.38400        4.56800        8.82800
H          4.77800        3.82600        8.78500
C          6.11400        4.04900        4.48000
O          6.27700        4.69900        3.45000
N          5.03400        3.28800        4.68200
H          4.90100        2.86800        5.59100
C          4.00400        3.01600        3.67000
H          4.49100        2.71800        2.74000
C          3.13600        1.84600        4.15500
H          2.41300        1.60100        3.37500
H          3.77000        0.97100        4.29700
C          2.39700        2.11200        5.43100
C          1.15900        2.64500        5.50600
H          0.54100        2.91200        4.65600
N          0.83200        2.88100        6.82400
H         -0.01300        3.38400        7.08500
C          1.85300        2.51300        7.67500
C          2.01800        2.58400        9.06700
H          1.23400        2.99600        9.68300
C          3.20400        2.09600        9.64300
H          3.33500        2.12500       10.71700
C          4.20800        1.54800        8.82300
H          5.10900        1.15100        9.27200
C          4.04000        1.49800        7.42500
H          4.81200        1.06000        6.81000
C          2.86100        1.98400        6.81300
C          3.12500        4.23400        3.33200
O          2.60700        4.31200        2.22300
N          2.98100        5.20200        4.24400
H          3.35800        5.04500        5.17400
C          2.30200        6.47700        3.97800
H          1.36900        6.25800        3.45800
C          1.97400        7.19600        5.30400
H          2.91000        7.41200        5.82000
H          1.50200        8.15500        5.08000
C          1.05600        6.42700        6.27400
H          1.54700        5.51100        6.58600
H          0.91600        7.04400        7.16100
C         -0.33000        6.06700        5.74100
O         -0.94200        5.10200        6.16900
N         -0.89300        6.79600        4.80100
H         -0.42300        7.59500        4.41400
H         -1.80200        6.49600        4.49500
C          3.09500        7.42400        3.05100
O          2.60600        8.49500        2.70900
N          4.31700        7.09200        2.64400
H          4.80000        7.72100        2.02700
H          4.72000        6.20300        2.90300
