62
0 1
H          0.54900       13.82800       -6.40800
C          0.87400       14.84700       -6.20900
H          0.02300       15.46500       -5.93000
H          1.34900       15.25900       -7.09900
C          1.87900       14.83700       -5.08100
O          3.01700       15.24900       -5.26300
N          1.45600       14.37100       -3.90600
H          0.51600       14.02000       -3.84200
C          2.34900       14.20000       -2.75400
H          2.97200       15.09200       -2.66800
C          1.52800       14.08300       -1.46200
H          0.99300       15.01700       -1.28900
H          0.79800       13.28000       -1.57200
C          2.39300       13.79100       -0.26400
N          3.49000       14.55500        0.13400
C          4.03000       13.90500        1.17500
H          4.91300       14.22800        1.71100
N          3.34900       12.77600        1.42800
H          3.62000       12.07100        2.11500
C          2.30700       12.68700        0.53100
H          1.58000       11.89200        0.45000
C          3.29900       13.00400       -2.93400
O          2.90200       11.95400       -3.43700
N          4.53900       13.13600       -2.45200
H          4.74300       13.99000       -1.95200
C          5.64000       12.17600       -2.63700
H          5.62600       11.89200       -3.69100
C          6.98900       12.89300       -2.40400
H          7.79700       12.17300       -2.53800
H          7.09500       13.63500       -3.19700
C          7.18700       13.62100       -1.05800
H          6.39800       14.36000       -0.92400
C          7.19100       12.68500        0.15000
H          6.20100       12.25500        0.28600
H          7.91300       11.88300       -0.00400
H          7.44800       13.24000        1.05100
C          8.52600       14.35900       -1.07500
H          8.65500       14.91600       -0.14700
H          9.34500       13.64900       -1.18700
H          8.54600       15.06400       -1.90600
C          5.50700       10.82900       -1.88400
O          6.43200       10.02100       -1.90600
N          4.36400       10.56400       -1.24200
H          3.66300       11.28800       -1.25100
C          3.98400        9.24000       -0.71200
H          4.80900        8.54500       -0.86900
C          3.73000        9.31900        0.80500
H          2.85600        9.94100        0.98900
H          3.49700        8.31900        1.17100
C          4.88200        9.83800        1.63300
N          4.75100       10.56400        2.82000
C          5.99700       10.74800        3.28100
H          6.24200       11.26900        4.19800
N          6.89200       10.18300        2.45300
H          7.89400       10.17700        2.58400
C          6.20800        9.59700        1.41200
H          6.62900        9.04500        0.58200
C          2.79000        8.60700       -1.45300
O          2.29500        7.56200       -1.05300
N          2.28900        9.20900       -2.52400
H          2.68900       10.07300       -2.86800
H          1.51700        8.77100       -2.99800
