60
0 1
H          3.99100        9.59600       -0.88900
C          3.01100        9.99500       -1.14300
H          2.78600        9.77900       -2.18700
H          2.99300       11.07100       -0.97900
C          1.96500        9.34300       -0.27100
O          1.05200        8.70200       -0.77600
N          2.10900        9.50700        1.04200
H          2.95800        9.95000        1.35600
C          1.25000        8.88000        2.06400
H          0.29300        8.60400        1.61800
C          1.95500        7.60700        2.55400
H          1.24600        7.02400        3.14500
H          2.25200        6.99900        1.69900
C          3.17300        7.89100        3.40500
N          4.31000        8.59500        2.99500
C          5.12100        8.63600        4.06300
H          6.09900        9.09800        4.07200
N          4.54900        8.02200        5.11300
H          4.96200        7.91800        6.02900
C          3.31700        7.54900        4.71800
H          2.59300        7.01800        5.32000
C          0.94400        9.78700        3.26700
O          0.01300        9.52100        4.02400
N          1.73100       10.84700        3.46400
H          2.45000       11.02200        2.77900
C          1.69200       11.73800        4.63000
H          1.69200       11.11500        5.52500
C          2.97400       12.59200        4.65400
H          2.96200       13.19100        5.56600
H          3.84000       11.93300        4.71500
C          3.14500       13.55100        3.46100
H          2.23700       14.14600        3.36000
H          3.95400       14.24100        3.70100
S          3.52200       12.80900        1.84000
C          5.17300       12.12100        2.13700
H          5.84800       12.91400        2.46200
H          5.12300       11.34600        2.90100
H          5.55400       11.68400        1.21300
C          0.43000       12.61500        4.71900
O          0.19400       13.23600        5.75100
N         -0.38600       12.66000        3.66400
H         -0.12800       12.13700        2.83600
C         -1.71800       13.27500        3.65500
H         -1.69800       14.19000        4.24700
C         -2.06300       13.63200        2.20200
H         -3.02500       14.14600        2.17800
H         -1.30900       14.31800        1.81400
C         -2.12500       12.42600        1.29700
N         -1.02200       11.68700        0.85800
C         -1.52600       10.69200        0.11300
H         -0.93700        9.94100       -0.39400
N         -2.86800       10.75700        0.08300
H         -3.47100       10.11100       -0.40600
C         -3.26500       11.84300        0.82900
H         -4.27600       12.17100        1.03100
C         -2.81400       12.37700        4.26100
O         -3.95200       12.80900        4.40300
N         -2.52700       11.12700        4.60600
H         -1.59800       10.75600        4.45700
H         -3.25700       10.56000        4.99900
