67
0 1
H          6.72000       11.34600        5.06300
C          5.76300       11.45000        4.55600
H          5.24700       12.33600        4.92400
H          5.15000       10.56900        4.73700
C          5.99500       11.59900        3.07200
O          5.61300       12.60200        2.48500
N          6.62700       10.59700        2.46400
H          6.87700        9.78400        3.00900
C          6.90000       10.52700        1.02300
H          6.04600       10.94500        0.48700
C          8.13400       11.38600        0.68500
H          8.28300       11.39300       -0.39400
H          7.94100       12.41700        0.98400
C          9.41500       10.92900        1.32900
N         10.20300        9.86700        0.88800
C         11.25200        9.81900        1.72500
H         12.06100        9.10100        1.66100
N         11.14900       10.77200        2.66600
H         11.81600       10.93100        3.40800
C          9.99500       11.48700        2.43100
H          9.61700       12.33100        2.99100
C          7.05200        9.06500        0.56600
O          6.96400        8.14100        1.37400
N          7.26000        8.85000       -0.73500
H          7.42200        9.65200       -1.32400
C          7.30200        7.52900       -1.38900
H          6.36400        7.00800       -1.19500
C          7.43000        7.76400       -2.90200
H          7.45100        6.79900       -3.41300
H          6.55100        8.30400       -3.25400
C          8.65300        8.54300       -3.27800
C          9.86900        8.00100       -3.49000
H         10.07900        6.94000       -3.46600
N         10.81600        8.99600       -3.59800
H         11.81000        8.79800       -3.61900
C         10.24600       10.24800       -3.49700
C         10.77200       11.54700       -3.52000
H         11.83400       11.70200       -3.64000
C          9.89900       12.64000       -3.38300
H         10.28800       13.64900       -3.40100
C          8.51800       12.42200       -3.22900
H          7.85100       13.26800       -3.13500
C          8.00000       11.11200       -3.19900
H          6.93600       10.96000       -3.09100
C          8.85200        9.99100       -3.32300
C          8.43400        6.59900       -0.89900
O          8.36300        5.39200       -1.12100
N          9.45900        7.13200       -0.22700
H          9.46800        8.13900       -0.10800
C         10.54200        6.38400        0.43300
H         10.34300        5.31700        0.34200
C         11.88500        6.67700       -0.27200
H         12.05000        7.75500       -0.29000
H         12.69300        6.22900        0.30600
C         12.02300        6.15100       -1.68300
N         12.89000        6.67200       -2.64800
C         12.79600        5.86100       -3.71200
H         13.35600        5.98700       -4.63000
N         11.92200        4.87100       -3.47000
H         11.69100        4.12200       -4.10800
C         11.43300        5.02900       -2.19300
H         10.73100        4.38400       -1.68100
C         10.58100        6.64600        1.95200
O         11.62000        6.54100        2.59300
N          9.46700        7.02400        2.56600
H          8.61600        7.16400        2.03500
H          9.50100        7.20400        3.55300
