60
0 1
H         -0.08200        5.18000        0.78800
C          0.30100        5.51900        1.74900
H         -0.12800        4.91500        2.54700
H          0.04400        6.56500        1.90400
C          1.80300        5.36400        1.77100
O          2.33900        4.64300        2.60200
N          2.48900        6.04700        0.85600
H          1.98400        6.64300        0.21500
C          3.95100        6.02600        0.73200
H          4.38200        5.90200        1.72700
C          4.36800        4.81800       -0.12300
H          3.94800        3.91000        0.31200
H          3.95400        4.93100       -1.12600
C          5.85900        4.63900       -0.24300
N          6.68500        5.36600       -1.09800
C          7.92900        4.90500       -0.89800
H          8.80700        5.25300       -1.42800
N          7.92400        3.95400        0.05100
H          8.73900        3.44700        0.36700
C          6.62600        3.77300        0.47800
H          6.27100        3.07600        1.22600
C          4.46900        7.35200        0.15700
O          3.78300        7.99300       -0.63800
N          5.68000        7.76200        0.54800
H          6.21700        7.14000        1.13200
C          6.29800        9.04800        0.17600
H          5.60500        9.84300        0.45200
C          7.58400        9.23800        0.99800
H          7.94600       10.25500        0.84500
H          7.35100        9.12000        2.05700
C          8.69900        8.25000        0.61900
H          8.30400        7.23700        0.67800
H          9.00100        8.43000       -0.41200
S         10.17800        8.31600        1.66800
C         10.79200        9.97900        1.28900
H         11.75000       10.13200        1.78600
H         10.92100       10.08700        0.21300
H         10.08400       10.72600        1.64700
C          6.58600        9.22900       -1.32900
O          6.87900       10.34200       -1.76000
N          6.51300        8.15900       -2.12300
H          6.34300        7.26100       -1.68300
C          6.68700        8.15400       -3.58200
H          6.86500        9.17400       -3.92500
C          7.92500        7.31200       -3.93900
H          7.73500        6.27200       -3.67300
H          8.08200        7.35400       -5.01800
C          9.20700        7.75500       -3.27100
N         10.20300        6.90100       -2.79200
C         11.18300        7.69300       -2.33300
H         12.10600        7.33400       -1.89800
N         10.85900        8.98600       -2.50200
H         11.44300        9.77300       -2.26100
C          9.61800        9.04500       -3.09500
H          9.06800        9.93400       -3.37600
C          5.42700        7.68700       -4.33300
O          5.46100        7.47100       -5.53800
N          4.29500        7.52200       -3.65900
H          3.48000        7.22000       -4.16400
H          4.25500        7.73200       -2.67100
