60
0 1
H          6.00700        0.59900       -2.36500
C          6.52100        1.29300       -1.70200
H          7.41200        0.82500       -1.28900
H          5.85300        1.58700       -0.89400
C          6.91700        2.52400       -2.48300
O          6.48400        3.62400       -2.16100
N          7.74600        2.33900       -3.50900
H          8.01600        1.39700       -3.73800
C          8.10700        3.40600       -4.44900
H          8.24100        4.33400       -3.89000
C          9.43800        3.07700       -5.13800
H         10.20000        2.89300       -4.37900
H          9.32500        2.17600       -5.74300
C          9.90500        4.21000       -6.01200
N         10.40600        5.41800       -5.53400
C         10.55800        6.20600       -6.60800
H         10.91100        7.22900       -6.58000
N         10.17500        5.55800       -7.72100
H         10.16400        5.96200       -8.64700
C          9.75200        4.29700       -7.36500
H          9.32300        3.54100       -8.01000
C          7.00200        3.64700       -5.48800
O          6.37000        2.70100       -5.95400
N          6.80700        4.90500       -5.89200
H          7.38500        5.62400       -5.47700
C          5.80600        5.31000       -6.89600
H          5.68500        4.51400       -7.63200
C          4.45100        5.52300       -6.19700
H          3.72500        5.88200       -6.92800
H          4.09400        4.56400       -5.81900
C          4.50500        6.50100       -5.04900
N          4.47800        7.89100       -5.16800
C          4.69900        8.36900       -3.93500
H          4.76500        9.42100       -3.69000
N          4.85800        7.36200       -3.06100
H          5.08700        7.46300       -2.08300
C          4.74200        6.17400       -3.74500
H          4.87600        5.17600       -3.35000
C          6.22800        6.56600       -7.67400
O          5.98600        6.66000       -8.87500
N          6.92300        7.49400       -7.01400
H          7.00900        7.37600       -6.01100
C          7.45100        8.75600       -7.53800
H          6.67100        9.22900       -8.13600
C          7.74500        9.67700       -6.33800
H          8.22900       10.58900       -6.68900
H          6.79400        9.96500       -5.88700
C          8.59000        9.04400       -5.25400
N          8.15400        8.05500       -4.36700
C          9.22100        7.73200       -3.62300
H          9.22700        6.96600       -2.85800
N         10.28900        8.46100       -3.99100
H         11.22000        8.35600       -3.61600
C          9.91000        9.29300       -5.02200
H         10.53300        9.97800       -5.58100
C          8.66000        8.55800       -8.47500
O          9.77800        8.98700       -8.21000
N          8.46800        7.87200       -9.59200
H          9.22500        7.78300      -10.24800
H          7.55300        7.47700       -9.77200
