64
0 1
H          7.73600        3.41000        6.92600
C          7.34000        4.41600        6.79400
H          8.06900        5.03100        6.26700
H          7.12400        4.85400        7.76600
C          6.06700        4.34700        5.98600
O          5.63200        3.26300        5.61300
N          5.48000        5.50700        5.70100
H          5.91500        6.36300        6.02400
C          4.27100        5.65100        4.87500
H          3.53300        4.90700        5.17800
C          3.69500        7.05700        5.10900
H          2.75000        7.14500        4.57200
H          3.49000        7.19100        6.17200
C          4.62600        8.15500        4.65100
N          5.86500        8.44700        5.22500
C          6.40600        9.40800        4.46200
H          7.37500        9.85700        4.63800
N          5.58200        9.72200        3.44700
H          5.77400       10.40600        2.72800
C          4.45500        8.93600        3.54500
H          3.61300        8.90600        2.86700
C          4.53100        5.44700        3.37500
O          3.62100        5.05600        2.64800
N          5.75200        5.71900        2.90600
H          6.44300        6.07000        3.55300
C          6.16500        5.55600        1.51200
H          5.65200        4.68400        1.10300
C          5.75300        6.78600        0.69300
H          4.68500        6.96400        0.82800
H          6.28300        7.66200        1.07000
C          6.03000        6.63100       -0.78900
C          7.23500        7.10800       -1.34100
H          7.96100        7.60800       -0.71400
C          7.50600        6.91800       -2.71000
H          8.43000        7.27000       -3.14300
C          6.57100        6.25300       -3.53000
O          6.83800        6.07600       -4.85000
H          6.15000        5.58100       -5.29600
C          5.36400        5.77300       -2.97600
H          4.64700        5.26300       -3.60000
C          5.09800        5.96100       -1.60500
H          4.17600        5.58900       -1.17600
C          7.67600        5.30800        1.41000
O          8.45700        5.87500        2.17400
N          8.07400        4.43800        0.47900
H          7.36400        4.04000       -0.11500
C          9.45100        3.94600        0.29800
H         10.14000        4.79100        0.24600
C          9.85900        3.04600        1.48700
H         10.59500        2.30900        1.16400
H         10.34200        3.67800        2.23400
C          8.70500        2.33700        2.16000
N          7.87900        1.37100        1.57800
C          6.88600        1.16200        2.45900
H          6.06000        0.48000        2.30500
N          7.03800        1.95200        3.53600
H          6.37400        2.05500        4.30400
C          8.17900        2.69800        3.36500
H          8.54800        3.48300        4.00800
C          9.59400        3.17600       -1.01900
O         10.44900        3.49000       -1.83500
N          8.74200        2.19000       -1.26800
H          8.83500        1.68400       -2.13300
H          8.11700        1.88100       -0.53500
