63
0 1
H          5.06800       12.28300       -0.15800
C          5.98900       12.82800       -0.35300
H          5.91200       13.83600        0.04900
H          6.16500       12.87700       -1.42700
C          7.14800       12.12100        0.30500
O          8.14300       11.82900       -0.34400
N          7.00900       11.80900        1.59300
H          6.12100       12.00200        2.03500
C          8.04400       11.17100        2.42700
H          8.90900       11.83200        2.49300
C          7.46200       10.96200        3.83400
H          8.25500       10.60100        4.49000
H          7.11400       11.91800        4.22700
C          6.31600        9.97700        3.86500
N          5.09900       10.13300        3.19600
C          4.39600        9.01800        3.44600
H          3.39500        8.82800        3.07700
N          5.10900        8.17600        4.21300
H          4.79500        7.27100        4.53600
C          6.32500        8.76200        4.48400
H          7.14100        8.34500        5.06000
C          8.54700        9.82800        1.87300
O          9.71000        9.48300        2.05600
N          7.68700        9.09600        1.16000
H          6.74500        9.44500        1.08600
C          8.01000        7.83700        0.47900
H          8.39700        7.13600        1.21800
C          6.71000        7.26000       -0.10900
H          6.89500        6.22200       -0.38900
H          5.93700        7.25100        0.66100
C          6.19600        8.00700       -1.32900
C          5.42300        9.17600       -1.18000
H          5.13300        9.51600       -0.19600
C          5.04400        9.91900       -2.31600
H          4.47600       10.83100       -2.21400
C          5.41400        9.47800       -3.60400
O          5.13900       10.24100       -4.69100
H          5.43600       11.15100       -4.55000
C          6.15000        8.28500       -3.75500
H          6.43400        7.96000       -4.74500
C          6.54800        7.55700       -2.61800
H          7.15100        6.66500       -2.73500
C          9.08400        7.98200       -0.62000
O          9.64100        6.98000       -1.05900
N          9.37600        9.20800       -1.06900
H          8.87400        9.99500       -0.67300
C         10.39700        9.51400       -2.08000
H         10.41300        8.70500       -2.81200
C         10.02000       10.81600       -2.81600
H         10.06500       11.64300       -2.10600
H         10.75400       11.00700       -3.60100
C          8.61500       10.76400       -3.45200
H          8.63600       10.06400       -4.28700
H          7.89600       10.40700       -2.72100
C          8.07800       12.10400       -3.95700
O          6.88600       12.36300       -4.09400
O          8.99100       13.05000       -4.25500
H          8.49000       13.81300       -4.54100
C         11.82000        9.60700       -1.49000
O         12.78700        9.77100       -2.22500
N         11.99300        9.52400       -0.17400
H         11.19900        9.39400        0.43800
H         12.92900        9.58000        0.18800
