60
0 1
H          8.94700       15.32100       -9.20100
C          9.22400       14.80300       -8.28400
H          8.68200       15.23100       -7.44300
H         10.29600       14.90300       -8.12600
C          8.87300       13.34000       -8.41200
O          9.72900       12.48300       -8.20600
N          7.61000       13.06000       -8.73100
H          6.99100       13.84100       -8.91700
C          6.98700       11.72400       -8.77500
H          7.44100       11.09700       -8.00800
C          5.49800       11.88700       -8.43500
H          5.03000       10.90400       -8.36700
H          5.40300       12.36500       -7.45900
C          4.75700       12.71900       -9.45100
N          4.86600       14.10500       -9.58700
C          4.10900       14.42900      -10.64600
H          3.97800       15.43600      -11.01800
N          3.55100       13.32800      -11.18000
H          2.94800       13.31100      -11.99100
C          3.95500       12.23700      -10.44300
H          3.72100       11.19600      -10.62000
C          7.15500       10.96200      -10.10400
O          6.56200        9.89900      -10.27900
N          7.93400       11.48300      -11.05600
H          8.36500       12.37800      -10.86100
C          8.28900       10.79800      -12.31200
H          7.37100       10.36600      -12.71300
C          8.77800       11.82300      -13.36800
H          8.80700       11.32000      -14.33500
H          8.01800       12.60200      -13.44200
C         10.14200       12.51800      -13.16400
H         10.94800       11.84000      -13.44300
H         10.20100       13.37700      -13.83100
C         10.35300       12.99800      -11.73700
O          9.78700       13.98500      -11.30500
N         11.06100       12.25300      -10.91900
H         11.04100       12.50500       -9.94100
H         11.39300       11.35700      -11.24800
C          9.24800        9.61200      -12.05500
O         10.46400        9.70400      -12.23300
N          8.70400        8.50800      -11.53900
H          7.71100        8.53500      -11.33600
C          9.44200        7.30300      -11.13200
H         10.50900        7.52600      -11.10600
C          9.01300        6.89500       -9.70900
H          7.95400        6.63400       -9.72600
H          9.56800        6.00500       -9.41500
C          9.21700        7.93800       -8.63000
N          8.69900        7.85000       -7.33800
C          9.07200        8.97300       -6.70700
H          8.79400        9.22900       -5.69400
N          9.80200        9.74700       -7.52700
H         10.09800       10.70300       -7.34100
C          9.92200        9.10400       -8.73400
H         10.44200        9.47000       -9.60500
C          9.25300        6.15000      -12.12700
O          8.29100        6.10100      -12.88500
N         10.16200        5.18400      -12.13500
H         10.03500        4.42400      -12.78300
H         10.94600        5.21600      -11.50600
