61
0 1
H         11.00100        6.59800       -5.39000
C         10.70000        7.50200       -5.91600
H         10.19100        7.24300       -6.84300
H         11.58000        8.10400       -6.13900
C          9.76700        8.30400       -5.04000
O         10.06400        9.44200       -4.69700
N          8.63200        7.71300       -4.66700
H          8.45600        6.77100       -4.97800
C          7.64000        8.35300       -3.79500
H          7.51400        9.38800       -4.11900
C          6.27300        7.67200       -3.95800
H          6.00400        7.65600       -5.01400
H          6.32400        6.64200       -3.60100
C          5.19200        8.40900       -3.21100
N          4.63700        9.62600       -3.60700
C          3.79400        9.98400       -2.62700
H          3.22100       10.90200       -2.61500
N          3.82400        9.08100       -1.63100
H          3.38200        9.19200       -0.72100
C          4.70100        8.08000       -1.98300
H          5.00300        7.23200       -1.38300
C          8.10900        8.39500       -2.32900
O          7.70700        7.57900       -1.50400
N          8.97600        9.35600       -1.99800
H          9.36600        9.90700       -2.75500
C          9.51500        9.53600       -0.63900
H          9.89400        8.57400       -0.29000
C         10.68300       10.54300       -0.67300
H         10.29700       11.50900       -1.00100
H         11.05400       10.66500        0.34600
C         11.87300       10.15900       -1.57500
H         11.54100       10.09800       -2.60900
C         12.94900       11.24100       -1.48500
H         13.32400       11.31600       -0.46400
H         13.77400       10.99600       -2.15500
H         12.53100       12.20100       -1.78800
C         12.50700        8.82300       -1.18100
H         11.79900        8.01200       -1.34700
H         13.38600        8.63800       -1.79800
H         12.80000        8.84200       -0.13100
C          8.46100        9.97200        0.40000
O          8.70000        9.85800        1.59800
N          7.29200       10.45600       -0.03400
H          7.13300       10.45700       -1.02900
C          6.18100       10.86600        0.83800
H          6.60500       11.30300        1.74400
C          5.34900       11.96100        0.14600
H          4.95600       11.57300       -0.79100
H          4.50800       12.22600        0.78900
C          6.15100       13.24100       -0.14600
H          6.51800       13.65900        0.79100
H          7.00800       13.01000       -0.77700
C          5.31800       14.30300       -0.86000
O          4.15800       14.18000       -1.22300
O          5.96400       15.45900       -1.09800
H          5.32300       16.01200       -1.54700
C          5.33100        9.66100        1.30200
O          4.11000        9.63900        1.16700
N          5.96300        8.61100        1.81000
H          6.96900        8.63900        1.90700
H          5.42600        7.81000        2.09400
