64
0 1
H          6.07500       13.20900        7.77800
C          6.15800       12.16700        8.08200
H          5.24200       11.63300        7.83900
H          6.34000       12.11300        9.15500
C          7.31800       11.53100        7.35300
O          8.28000       11.11000        7.98800
N          7.22800       11.49300        6.02400
H          6.43800       11.94700        5.59100
C          8.26300       10.98300        5.11500
H          9.21000       10.93100        5.65600
C          7.91700        9.55600        4.66100
H          7.84500        8.91000        5.53700
H          6.94900        9.56500        4.15700
C          8.95200        8.98100        3.72800
N         10.30800        8.85300        4.03100
C         10.89300        8.37800        2.92300
H         11.95200        8.16800        2.83500
N          9.99000        8.24700        1.93500
H         10.20100        7.98400        0.97300
C          8.75800        8.62500        2.42500
H          7.82400        8.66600        1.88100
C          8.48200       11.93800        3.93100
O          7.61400       12.75200        3.61800
N          9.65100       11.84400        3.29000
H         10.26000       11.09000        3.58100
C         10.22100       12.91400        2.45500
H          9.44400       13.64800        2.23700
C         11.33600       13.62300        3.25500
H         12.26300       13.05600        3.15400
H         11.50800       14.61100        2.82500
C         11.02200       13.76200        4.73600
C         11.46100       12.76500        5.63200
H         12.11000       11.97100        5.28600
C         10.97800       12.74400        6.95300
H         11.26100       11.94800        7.62600
C         10.07500       13.73600        7.38800
O          9.51600       13.64100        8.62000
H          9.30800       12.71700        8.80900
C          9.68300       14.76700        6.51000
H          8.98000       15.51200        6.85100
C         10.14900       14.77400        5.18100
H          9.78700       15.52000        4.48700
C         10.75100       12.40000        1.11000
O         10.59000       13.05000        0.07900
N         11.36700       11.21500        1.10200
H         11.52500       10.75700        1.99000
C         11.94000       10.57600       -0.08700
H         12.36200       11.35700       -0.72200
C         13.09400        9.64000        0.32500
H         12.68900        8.71400        0.73200
H         13.67200        9.38100       -0.56200
C         14.01900       10.22100        1.36900
N         13.72600       10.31500        2.73200
C         14.78700       10.90700        3.29700
H         14.87800       11.12300        4.35400
N         15.71500       11.19300        2.36700
H         16.60300       11.64100        2.54700
C         15.24700       10.76800        1.14200
H         15.74400       10.85200        0.18500
C         10.84600        9.86800       -0.90200
O         10.70800        8.64800       -0.87200
N         10.00700       10.63000       -1.58800
H          9.26500       10.19100       -2.10600
H         10.07900       11.63600       -1.51300
