56
0 1
H         11.07600        6.60800        0.94500
C         11.95300        6.05700        0.61300
H         11.66500        5.32600       -0.14200
H         12.41400        5.54800        1.45700
C         12.94800        7.01900        0.00800
O         13.30500        6.88900       -1.15500
N         13.39400        7.99000        0.80000
H         13.06500        8.03100        1.75500
C         14.37500        9.01100        0.40900
H         15.10100        8.54900       -0.26000
C         13.65700       10.13500       -0.36200
H         14.38000       10.88900       -0.66500
H         13.23100        9.71600       -1.27500
C         12.55900       10.82400        0.40500
N         12.75200       11.79400        1.38500
C         11.52800       12.14000        1.81100
H         11.33300       12.88000        2.57800
N         10.58800       11.44300        1.15000
H          9.59200       11.53200        1.28900
C         11.22000       10.60600        0.25700
H         10.76200        9.90900       -0.43100
C         15.13200        9.52600        1.65200
O         14.60500        9.42400        2.76300
N         16.37500       10.03400        1.51600
C         17.12100       10.21300        0.27700
H         16.53500       10.72400       -0.48400
H         17.45200        9.24100       -0.09100
C         18.33600       11.06200        0.64800
H         18.07100       12.12000        0.61500
H         19.18600       10.85800       -0.00300
C         18.61000       10.64400        2.09100
H         19.15300       11.41500        2.63900
H         19.17500        9.71000        2.09600
C         17.21200       10.39300        2.66800
H         17.26200        9.55000        3.35800
C         16.70000       11.60500        3.46100
O         17.01300       11.72900        4.64100
N         15.90100       12.48400        2.84800
H         15.70000       12.34000        1.86500
C         15.24400       13.61600        3.51200
H         15.88100       13.90300        4.35000
C         15.20500       14.84400        2.57600
H         14.95300       15.70500        3.19700
H         16.20800       15.02500        2.18400
C         14.20500       14.83000        1.40300
H         13.22300       14.51600        1.74800
H         14.10000       15.85400        1.04600
C         14.61100       13.97900        0.19900
O         15.56800       13.21500        0.13400
O         13.82600       14.13300       -0.88500
H         14.17400       13.52900       -1.54000
C         13.88600       13.24700        4.15400
O         13.03700       14.10600        4.37600
N         13.63000       11.97700        4.44600
H         12.74300       11.74400        4.85400
H         14.29600       11.25800        4.20100
