61
0 1
H          1.82000       12.22000       -8.10900
C          1.78900       12.17900       -7.02100
H          0.76600       11.99800       -6.69600
H          2.15100       13.11800       -6.60800
C          2.66700       11.04700       -6.54700
O          3.22300       10.31400       -7.35500
N          2.79000       10.89300       -5.23100
H          2.30400       11.54000       -4.62100
C          3.54600        9.81300       -4.57600
H          4.45200        9.60100       -5.14600
C          3.93500       10.30000       -3.17200
H          4.60300        9.56900       -2.71400
H          4.47600       11.24400       -3.25100
C          2.73600       10.49800       -2.27400
N          1.74800       11.47000       -2.45100
C          0.83700       11.24700       -1.49400
H         -0.05900       11.83800       -1.35200
N          1.19100       10.18800       -0.74500
H          0.66400        9.82000        0.03500
C          2.38400        9.69800       -1.22600
H          2.93200        8.83500       -0.87200
C          2.76000        8.49600       -4.44400
O          3.34000        7.45900       -4.12400
N          1.44000        8.53400       -4.64500
H          1.06300        9.39700       -5.00600
C          0.46600        7.50600       -4.25300
H          0.77300        7.15100       -3.27000
C         -0.91000        8.19500       -4.11700
H         -0.77000        9.21100       -3.74100
H         -1.34600        8.27500       -5.11400
C         -1.90900        7.48400       -3.18100
H         -1.97800        6.42600       -3.42300
C         -1.50800        7.62800       -1.70900
H         -1.43600        8.68100       -1.44300
H         -2.25800        7.14700       -1.08100
H         -0.55200        7.13900       -1.53100
C         -3.29700        8.10500       -3.34600
H         -3.62800        7.98100       -4.37700
H         -4.00800        7.59900       -2.69300
H         -3.26900        9.16700       -3.10100
C          0.45000        6.25700       -5.16800
O         -0.58600        5.62800       -5.36000
N          1.59800        5.90300       -5.75000
H          2.40800        6.46800       -5.53100
C          1.77800        4.75000       -6.64400
H          0.90100        4.10600       -6.55800
C          1.87800        5.19700       -8.11900
H          2.90300        5.50100       -8.33400
H          1.67900        4.31900       -8.73600
C          0.90100        6.31100       -8.55600
H          0.83100        6.28800       -9.64300
H         -0.09100        6.11700       -8.14900
C          1.35100        7.72300       -8.16700
O          0.65000        8.54800       -7.59500
O          2.64200        8.00500       -8.44500
H          2.82500        8.90600       -8.11400
C          2.99000        3.87800       -6.25700
O          3.23800        2.84800       -6.87200
N          3.77100        4.25400       -5.25000
H          3.57900        5.10400       -4.74100
H          4.55800        3.67200       -5.01800
