63
0 1
H         13.32100        3.12400       -3.48400
C         12.32000        3.39000       -3.82200
H         12.26700        3.32000       -4.90600
H         12.08500        4.40500       -3.50500
C         11.32400        2.43800       -3.20500
O         11.69100        1.61700       -2.37600
N         10.07100        2.51400       -3.65300
H          9.87800        3.16200       -4.40400
C          8.91700        1.73700       -3.15600
H          8.80800        1.91300       -2.08400
C          7.66500        2.25300       -3.87900
H          6.78200        1.77800       -3.44900
H          7.57300        3.32800       -3.72300
C          7.69900        1.97800       -5.36400
N          8.54600        2.60300       -6.28400
C          8.28700        2.02900       -7.46800
H          8.77100        2.29800       -8.39900
N          7.35000        1.07500       -7.33500
H          6.98700        0.49900       -8.08200
C          6.97000        1.02400       -6.01200
H          6.25400        0.35300       -5.55700
C          9.02100        0.21100       -3.34200
O          8.15600       -0.53200       -2.87900
N         10.06500       -0.26100       -4.02200
H         10.72000        0.42100       -4.37100
C         10.44300       -1.67000       -4.16000
H          9.55200       -2.29000       -4.04700
C         10.98800       -1.88100       -5.58000
H         11.21800       -2.93800       -5.71800
H         10.20400       -1.62800       -6.29700
C         12.22400       -1.05800       -5.89500
C         12.09500        0.24900       -6.41000
H         11.11200        0.65600       -6.61200
C         13.24300        1.02400       -6.66600
H         13.14400        2.02100       -7.06500
C         14.52400        0.48900       -6.40600
O         15.63800        1.22700       -6.64800
H         15.43700        2.06900       -7.05700
C         14.65100       -0.82000       -5.89700
H         15.63700       -1.22000       -5.71200
C         13.50200       -1.59400       -5.64700
H         13.59900       -2.60300       -5.26600
C         11.44600       -2.14000       -3.08100
O         11.85600       -3.29600       -3.10200
N         11.85500       -1.25900       -2.15500
H         11.51900       -0.30400       -2.23500
C         12.70400       -1.54700       -0.98300
H         12.91300       -0.58100       -0.52400
C         11.92400       -2.37100        0.07100
H         11.48500       -3.25200       -0.39900
H         12.62100       -2.72600        0.83000
C         10.83000       -1.58100        0.81700
H         10.37100       -2.24100        1.55300
H         11.29100       -0.74800        1.34800
C          9.72400       -1.03200       -0.07900
O          9.49000        0.15700       -0.23900
O          9.02900       -1.95800       -0.77000
H          8.47700       -1.46400       -1.39900
C         14.10700       -2.11900       -1.30000
O         14.80900       -2.59500       -0.41600
N         14.57900       -2.04500       -2.53800
H         15.49300       -2.42400       -2.72000
H         14.00400       -1.66300       -3.27000
