61
0 1
H         17.79800        8.26700        0.39000
C         18.49700        8.78500        1.04500
H         18.91900        9.64900        0.53500
H         19.29300        8.10100        1.33600
C         17.76800        9.24000        2.28600
O         18.10800        8.83600        3.39000
N         16.74500       10.07500        2.11100
H         16.47000       10.31800        1.16900
C         15.93900       10.62400        3.21400
H         16.60000       11.12700        3.92200
C         14.95000       11.65000        2.64000
H         14.42600       12.13100        3.46700
H         15.50400       12.42100        2.10300
C         13.93300       11.04300        1.70300
N         14.22300       10.45000        0.47200
C         13.05300       10.00300       -0.00600
H         12.93200        9.49900       -0.95600
N         12.05900       10.26900        0.86000
H         11.08600       10.03300        0.72500
C         12.59600       10.92100        1.94700
H         12.07600       11.26200        2.83200
C         15.18500        9.54300        4.00000
O         15.01300        9.67400        5.20800
N         14.78000        8.45700        3.33200
H         14.95400        8.44000        2.33800
C         14.15500        7.28100        3.94800
H         13.30600        7.61300        4.54900
C         13.62900        6.39400        2.80100
H         12.91800        6.99900        2.23700
H         14.44900        6.14700        2.12400
C         12.92700        5.09200        3.24500
H         12.50700        5.21700        4.24200
C         11.77800        4.76300        2.28800
H         12.15600        4.64300        1.27200
H         11.29100        3.84000        2.60400
H         11.04100        5.56600        2.31000
C         13.87600        3.88800        3.22900
H         14.26000        3.71800        2.22300
H         14.71000        4.05300        3.90800
H         13.34200        2.99900        3.56400
C         15.10900        6.53900        4.90600
O         14.65700        5.86200        5.82400
N         16.42100        6.67700        4.70400
H         16.72300        7.25400        3.92700
C         17.47800        6.11500        5.54400
H         17.07600        5.25800        6.08700
C         18.62400        5.61000        4.64500
H         19.03400        6.43100        4.05600
H         19.42100        5.24500        5.29400
C         18.22800        4.44400        3.71700
H         19.13800        3.91700        3.43300
H         17.60400        3.73900        4.26700
C         17.51300        4.82900        2.41800
O         17.22600        5.95700        2.03600
O         17.18600        3.78400        1.63500
H         16.77000        4.16700        0.86300
C         17.98100        7.10100        6.62200
O         18.91500        6.79500        7.35500
N         17.39500        8.28600        6.75400
H         16.61900        8.54300        6.16000
H         17.73900        8.91300        7.46000
