62
0 1
H         15.06100        2.65500        7.97500
C         15.12100        1.56900        8.01700
H         16.09500        1.27300        8.40600
H         14.98700        1.15200        7.02000
C         14.04300        1.04000        8.93100
O         14.34100        0.38600        9.92800
N         12.78100        1.31500        8.59800
H         12.60300        1.85100        7.76400
C         11.63400        0.81200        9.36200
H         11.92400        0.79100       10.41200
C         10.43300        1.76700        9.28200
H         10.78100        2.79300        9.40400
H          9.93800        1.68500        8.31300
C          9.45100        1.47700       10.39100
N          9.55600        1.98500       11.68600
C          8.60800        1.36700       12.40500
H          8.44100        1.52000       13.46400
N          7.95200        0.47300       11.64700
H          7.29500       -0.21700       12.00600
C          8.46800        0.53000       10.37100
H          8.20800       -0.10200        9.53200
C         11.27600       -0.63300        8.98100
O         10.29300       -0.89000        8.29300
N         12.07900       -1.59200        9.44400
H         12.91700       -1.30900        9.93800
C         11.76500       -3.03000        9.37100
H         11.35400       -3.26200        8.38600
C         13.06300       -3.84100        9.57400
H         13.60700       -3.44900       10.43400
H         12.77600       -4.86600        9.81500
C         14.00200       -3.91500        8.35200
H         13.44200       -4.29700        7.49800
C         14.63800       -2.57800        7.96100
H         15.12200       -2.12400        8.82600
H         15.37900       -2.73700        7.17700
H         13.87700       -1.90700        7.56700
C         15.13900       -4.89300        8.65400
H         15.73000       -4.53300        9.49700
H         14.72800       -5.87300        8.89700
H         15.78200       -4.99600        7.78000
C         10.69300       -3.44700       10.40600
O         10.22900       -4.58500       10.41500
N         10.32700       -2.53400       11.30800
H         10.74100       -1.62200       11.20900
C          9.68000       -2.81000       12.59400
H         10.00200       -3.80200       12.91600
C         10.21200       -1.80900       13.64600
H          9.63900       -0.88600       13.59800
H         10.08500       -2.23300       14.64200
C         11.67000       -1.46200       13.43300
N         12.73100       -2.36700       13.48600
C         13.79900       -1.71700       13.00100
H         14.78100       -2.15600       12.88400
N         13.46200       -0.47100       12.62800
H         14.06800        0.17100       12.12600
C         12.12400       -0.28800       12.90500
H         11.52400        0.58400       12.68100
C          8.14900       -2.86300       12.46500
O          7.41600       -2.03800       13.00500
N          7.64300       -3.79700       11.67300
H          8.27400       -4.41800       11.18200
H          6.64700       -3.84400       11.54700
