59
0 1
H         11.55200        5.33000       -3.34400
C         11.87000        5.78900       -2.40900
H         11.78400        6.87100       -2.48900
H         12.89900        5.51200       -2.19300
C         10.97400        5.30400       -1.29500
O         10.04500        4.54300       -1.53400
N         11.24400        5.75200       -0.07000
H         12.00400        6.41000        0.04900
C         10.44300        5.43100        1.12300
H         10.26400        4.35600        1.15900
C         11.24100        5.85700        2.36600
H         10.72300        5.50800        3.26000
H         12.22900        5.39500        2.34500
C         11.40000        7.35600        2.44700
N         12.21400        8.12200        1.61000
C         11.89400        9.40100        1.86100
H         12.32700       10.25200        1.35200
N         10.92200        9.47000        2.78600
H         10.42500       10.30800        3.05900
C         10.59900        8.19000        3.16900
H          9.79300        7.89600        3.82700
C          9.07000        6.12600        1.13900
O          8.18100        5.70800        1.87600
N          8.90900        7.19700        0.35600
H          9.70100        7.46200       -0.21300
C          7.71300        8.03600        0.25100
H          8.01800        8.93000       -0.29300
C          6.63300        7.34900       -0.61700
H          6.18800        6.52200       -0.06100
H          5.84800        8.07600       -0.82900
C          7.15400        6.78200       -1.95200
H          7.75700        5.89600       -1.75900
H          6.30300        6.47300       -2.55900
C          8.00000        7.77700       -2.74400
O          9.19500        7.98000       -2.57900
O          7.32700        8.50400       -3.65600
H          7.98500        9.06900       -4.06300
C          7.22400        8.57000        1.61400
O          7.79900        9.52000        2.14200
N          6.17000        7.98400        2.18700
H          5.75800        7.18000        1.72500
C          5.61200        8.33000        3.50200
H          5.67000        9.41000        3.64700
C          4.13500        7.90800        3.51600
H          3.69600        8.16000        4.48300
H          3.59800        8.46900        2.75000
C          3.94100        6.43500        3.25100
N          4.07400        5.82200        2.00300
C          3.91900        4.50800        2.22200
H          3.97300        3.74900        1.45300
N          3.70400        4.27100        3.52800
H          3.57700        3.36000        3.94300
C          3.72200        5.47600        4.19600
H          3.62300        5.64200        5.26000
C          6.36000        7.68600        4.68300
O          6.11800        8.03900        5.83000
N          7.25600        6.73500        4.45500
H          7.43000        6.42000        3.50800
H          7.71700        6.31200        5.24200
