57
0 1
H          4.10900        5.67200       -2.87500
C          3.40200        6.34600       -2.39600
H          3.23700        6.04500       -1.36300
H          2.45700        6.32700       -2.93800
C          3.95400        7.75100       -2.42900
O          3.34900        8.64100       -3.01300
N          5.10400        7.95900       -1.78900
H          5.55000        7.17900       -1.33500
C          5.81300        9.24400       -1.82500
H          5.05800       10.02100       -1.69900
C          6.76900        9.35100       -0.62100
H          7.30200       10.29400       -0.69400
H          6.15700        9.40600        0.27900
C          7.79500        8.25800       -0.38800
N          8.54600        8.14300        0.78600
C          9.35300        7.08600        0.61600
H         10.06500        6.73100        1.35100
N          9.15900        6.54100       -0.59500
H          9.66500        5.75000       -0.96900
C          8.17900        7.26000       -1.24100
H          7.80300        7.07700       -2.23600
C          6.48400        9.50900       -3.19400
O          6.92800        8.56200       -3.84500
N          6.57900       10.77200       -3.66100
C          6.19900       11.99300       -2.96500
H          6.60100       12.02600       -1.95300
H          5.11100       12.07500       -2.94400
C          6.78400       13.13500       -3.79300
H          7.82100       13.30900       -3.50100
H          6.19800       14.04900       -3.69400
C          6.73200       12.57700       -5.21500
H          7.46100       13.06200       -5.86700
H          5.72600       12.70400       -5.61700
C          7.01900       11.08300       -5.02900
H          6.42100       10.51500       -5.74300
C          8.49600       10.75300       -5.29500
O          8.86000       10.40600       -6.41400
N          9.34700       10.81700       -4.26900
H          9.00100       11.15800       -3.38100
C         10.74800       10.37500       -4.29600
H         11.15900       10.57100       -5.28800
C         11.53600       11.21400       -3.27700
H         12.56900       10.87000       -3.22600
H         11.55100       12.25000       -3.61600
C         10.92700       11.18100       -1.89900
N          9.92400       12.04100       -1.44400
C          9.58400       11.59100       -0.22800
H          8.80900       12.02300        0.39200
N         10.27000       10.47600        0.06900
H         10.05000        9.84900        0.83700
C         11.12400       10.20100       -0.97400
H         11.77100        9.34100       -1.08800
C         10.91400        8.85700       -4.06200
O         11.99200        8.38500       -3.71700
N          9.86700        8.05400       -4.20100
H          8.96700        8.43100       -4.46500
H         10.00000        7.06800       -4.06800
