58
0 1
H         13.62800       -3.33000        2.12500
C         14.18200       -2.52800        1.64000
H         15.25100       -2.71000        1.73800
H         13.93000       -1.57500        2.10300
C         13.81400       -2.48300        0.17700
O         13.23100       -1.50900       -0.28600
N         14.12300       -3.54800       -0.56000
H         14.52100       -4.35700       -0.09900
C         13.82000       -3.67400       -1.99600
H         14.26600       -2.83500       -2.53300
C         14.43900       -4.98100       -2.51600
H         14.26200       -5.05500       -3.58900
H         15.51700       -4.95400       -2.35600
C         13.88200       -6.20900       -1.83700
N         14.12400       -6.57000       -0.51100
C         13.39500       -7.67200       -0.29000
H         13.36600       -8.20800        0.65100
N         12.71000       -8.01200       -1.39600
H         12.09600       -8.81000       -1.48100
C         13.00100       -7.09500       -2.38300
H         12.60100       -7.06100       -3.38700
C         12.31500       -3.64900       -2.30100
O         11.91800       -3.25500       -3.39200
N         11.48100       -4.03800       -1.33500
H         11.89600       -4.35600       -0.46500
C         10.01700       -3.95600       -1.37700
H          9.72500       -3.93100       -2.42800
C          9.42200       -5.25500       -0.78100
H          8.48700       -5.45000       -1.30900
H         10.08800       -6.08700       -1.01500
C          9.09300       -5.29800        0.72700
H          8.23200       -4.65800        0.91900
H          8.79200       -6.31400        0.98300
C         10.20400       -4.88100        1.69100
O         11.33900       -4.53800        1.38400
O          9.82800       -4.87600        2.98400
H         10.52800       -4.42000        3.47800
C          9.45600       -2.65900       -0.75100
O          8.24300       -2.52500       -0.61700
N         10.32000       -1.72300       -0.33700
H         11.30800       -1.90900       -0.45700
C          9.95700       -0.42200        0.25300
H          8.87300       -0.35100        0.35400
C         10.58200       -0.30000        1.65500
H         11.65800       -0.45200        1.56100
H         10.42400        0.71000        2.03600
C         10.01400       -1.29900        2.68000
H          9.15700       -0.84400        3.17400
H          9.66900       -2.19900        2.17700
C         11.03300       -1.71400        3.74300
O         11.24700       -2.86700        4.09800
O         11.76000       -0.71700        4.28400
H         12.34000       -1.13300        4.92200
C         10.39900        0.77000       -0.61700
O          9.79700        1.83400       -0.56000
N         11.43800        0.63100       -1.43200
H         11.70600        1.41600       -2.00000
H         11.98000       -0.22100       -1.42100
