61
0 1
H          7.30600       -2.83400       -8.17800
C          7.89000       -3.62900       -7.71500
H          8.74400       -3.86700       -8.34600
H          7.26400       -4.51000       -7.58500
C          8.37600       -3.15600       -6.36700
O          8.09600       -2.03200       -5.96900
N          9.11700       -4.01300       -5.66300
H          9.31000       -4.91400       -6.06700
C          9.67700       -3.71800       -4.33600
H          8.91000       -3.19900       -3.75800
C          9.99500       -5.02400       -3.58900
H         10.59500       -5.67800       -4.22400
H         10.58000       -4.79400       -2.69800
C          8.75600       -5.74600       -3.13200
N          7.88000       -5.27000       -2.15500
C          6.92100       -6.20000       -2.03800
H          6.08200       -6.13200       -1.35600
N          7.15300       -7.22300       -2.87900
H          6.57600       -8.04800       -2.96700
C          8.31000       -6.95500       -3.57900
H          8.78400       -7.57600       -4.32500
C         10.88200       -2.76500       -4.39200
O         12.01900       -3.15700       -4.13500
N         10.63000       -1.49400       -4.71400
H          9.67300       -1.26500       -4.96500
C         11.64700       -0.43200       -4.77300
H         12.44500       -0.75700       -5.44100
C         11.01700        0.85400       -5.34200
H         10.22100        1.17400       -4.66800
H         11.77900        1.63500       -5.34700
C         10.43700        0.73700       -6.76600
H          9.64800       -0.01200       -6.78000
C          9.82700        2.07600       -7.18100
H          9.38300        1.98700       -8.17200
H          9.04600        2.35700       -6.47400
H         10.59500        2.85000       -7.19700
C         11.49600        0.35500       -7.80300
H         11.05300        0.36000       -8.79900
H         12.32300        1.06500       -7.77200
H         11.87000       -0.64700       -7.60200
C         12.32800       -0.14700       -3.41800
O         13.39600        0.45700       -3.39300
N         11.75000       -0.59900       -2.30000
H         10.86000       -1.07600       -2.38900
C         12.37200       -0.56000       -0.97100
H         12.87000        0.40700       -0.88000
C         11.28400       -0.61100        0.12700
H         11.73200       -0.20100        1.03300
H         10.46300        0.05300       -0.14600
C         10.71400       -1.99700        0.50200
H         11.52500       -2.68400        0.74500
H         10.11800       -1.88100        1.40700
C          9.81500       -2.64900       -0.54700
O          9.49700       -2.15100       -1.61900
O          9.36900       -3.87500       -0.20200
H          8.81900       -4.21900       -0.92600
C         13.47000       -1.62600       -0.75900
O         14.07400       -1.68400        0.30600
N         13.72800       -2.51100       -1.71600
H         14.45300       -3.18900       -1.55500
H         13.21900       -2.48800       -2.58900
