61
0 1
H         17.79700        6.05400       -1.45800
C         17.50500        6.07800       -2.50500
H         16.71300        5.35500       -2.68800
H         18.36500        5.84500       -3.13100
C         17.00800        7.46200       -2.85400
O         17.56900        8.11500       -3.72200
N         15.95500        7.90400       -2.17000
H         15.57200        7.31800       -1.44300
C         15.34000        9.22800       -2.33300
H         16.11700        9.95600       -2.57400
C         14.34600        9.19300       -3.51100
H         14.89300        8.99200       -4.43300
H         13.63500        8.38200       -3.35100
C         13.57800       10.48000       -3.68600
N         14.15500       11.74500       -3.79500
C         13.13500       12.61300       -3.86200
H         13.24600       13.68700       -3.94000
N         11.96100       11.96200       -3.79400
H         11.04400       12.40500       -3.82300
C         12.22000       10.61300       -3.67700
H         11.49800        9.81400       -3.58400
C         14.66600        9.68200       -1.02900
O         14.31300        8.85400       -0.19000
N         14.45800       10.99200       -0.87200
H         14.69700       11.59500       -1.65300
C         13.74200       11.60300        0.24800
H         13.13400       10.83700        0.73100
C         14.76700       12.11900        1.27700
H         15.34200       11.27100        1.65200
H         15.45800       12.79100        0.76400
C         14.15800       12.87900        2.47100
H         13.60800       13.74800        2.11100
C         13.21100       12.00500        3.29700
H         12.34300       11.72100        2.70600
H         13.73100       11.10700        3.63300
H         12.86300       12.56200        4.16700
C         15.27600       13.37100        3.39100
H         15.95100       14.02000        2.83300
H         14.85100       13.94000        4.21800
H         15.83800       12.52500        3.78600
C         12.80500       12.70400       -0.26700
O         13.25300       13.71800       -0.79800
N         11.49600       12.51600       -0.08900
H         11.19900       11.66200        0.35600
C         10.45500       13.44500       -0.54600
H         10.77300       13.83100       -1.51500
C          9.14400       12.65500       -0.75700
H          9.36800       11.73000       -1.29200
H          8.74000       12.37900        0.21800
C          8.05700       13.41000       -1.54600
H          7.13800       12.82400       -1.51500
H          7.84400       14.37100       -1.07900
C          8.41000       13.64400       -3.01400
O          9.42800       13.25900       -3.57700
O          7.48800       14.33300       -3.71300
H          7.82700       14.40900       -4.60600
C         10.31100       14.67300        0.38400
O          9.26300       14.91900        0.96800
N         11.37400       15.44100        0.57300
H         12.24200       15.21300        0.10400
H         11.29500       16.23400        1.18800
