64
0 1
H          5.49600        7.23600        2.58800
C          5.66700        7.59300        1.57500
H          4.75300        8.03300        1.18000
H          5.97600        6.76100        0.94300
C          6.75500        8.63900        1.57900
O          7.67200        8.58000        0.77300
N          6.68100        9.58200        2.51600
H          5.93900        9.52100        3.20000
C          7.63200       10.70000        2.66500
H          7.63600       11.29500        1.75000
C          7.15300       11.57300        3.83500
H          7.78500       12.45900        3.89700
H          6.13100       11.90400        3.64500
C          7.19000       10.84900        5.16100
N          6.37700        9.76800        5.51600
C          6.77600        9.39400        6.74000
H          6.33600        8.58400        7.30800
N          7.79800       10.16100        7.15700
H          8.27400       10.07300        8.04400
C          8.07700       11.08200        6.17100
H          8.85600       11.83300        6.17300
C          9.08500       10.26500        2.92200
O         10.01100       11.03000        2.67600
N          9.27900        9.04800        3.43100
H          8.45800        8.49600        3.61600
C         10.58100        8.42300        3.67900
H         11.29300        9.18500        3.99900
C         10.38900        7.40400        4.82000
H         11.37000        7.06600        5.15600
H          9.90000        7.88900        5.66600
C          9.57600        6.19700        4.38200
C          8.16700        6.22600        4.43100
H          7.65400        7.04800        4.91200
C          7.42400        5.20900        3.79900
H          6.34600        5.23200        3.78900
C          8.09200        4.17400        3.11000
O          7.39100        3.28800        2.36100
H          7.89100        3.08600        1.55600
C          9.49900        4.10900        3.12600
H         10.00500        3.31500        2.59800
C         10.23800        5.11300        3.77300
H         11.32000        5.09200        3.73000
C         11.16400        7.71700        2.43500
O         12.33000        7.32700        2.44900
N         10.35500        7.46900        1.39500
H          9.43500        7.89600        1.39700
C         10.59800        6.45000        0.35600
H         11.10000        5.61000        0.83800
C          9.23800        5.92600       -0.15000
H          8.54100        5.89100        0.68700
H          8.83100        6.62100       -0.88500
C          9.27600        4.53600       -0.74200
N          9.13000        3.34200       -0.02500
C          9.24400        2.35500       -0.92700
H          9.18700        1.30000       -0.69200
N          9.44600        2.86100       -2.15500
H          9.58000        2.32300       -2.99900
C          9.46500        4.23400       -2.05700
H          9.63200        4.95000       -2.85200
C         11.54800        6.91700       -0.76900
O         11.37200        6.60600       -1.94100
N         12.56300        7.70600       -0.44700
H         12.72100        7.92900        0.52700
H         13.17300        8.03100       -1.17600
