62
0 1
H          3.51800       10.10300       -3.92900
C          3.95700        9.33300       -3.29700
H          4.27900        8.49500       -3.91300
H          3.22600        8.99700       -2.56500
C          5.15400        9.91200       -2.58000
O          5.47800       11.07800       -2.76300
N          5.80900        9.09500       -1.75900
H          5.51100        8.13200       -1.70000
C          7.04300        9.43800       -1.03700
H          7.66900       10.04400       -1.69300
C          6.70100       10.28100        0.20600
H          7.62400       10.69400        0.61500
H          6.07700       11.12600       -0.08600
C          6.01000        9.51800        1.30400
N          6.65800        8.72000        2.24500
C          5.69300        8.23100        3.03600
H          5.86200        7.55800        3.86600
N          4.48600        8.65900        2.62800
H          3.60600        8.40600        3.05500
C          4.66600        9.47800        1.53500
H          3.90700        9.99400        0.96500
C          7.83700        8.16500       -0.68800
O          7.40600        7.06100       -1.02200
N          8.99200        8.32300       -0.02900
H          9.22100        9.25300        0.28200
C          9.98800        7.27100        0.23900
H         10.42400        6.97000       -0.71400
C         11.09000        7.90300        1.11500
H         11.50600        8.76200        0.58600
H         10.62400        8.26800        2.03300
C         12.24800        6.96600        1.51500
H         11.86200        6.11600        2.07600
C         13.02700        6.45700        0.30100
H         13.87000        5.85200        0.63400
H         12.38400        5.82700       -0.31400
H         13.39400        7.29400       -0.29200
C         13.22200        7.72300        2.41800
H         12.69800        8.07200        3.30800
H         14.02600        7.05600        2.72900
H         13.64500        8.57600        1.88700
C          9.42400        5.99200        0.89000
O          9.91700        4.90100        0.61400
N          8.38600        6.11200        1.71900
H          8.05500        7.04700        1.93000
C          7.69600        4.98900        2.36500
H          7.94600        4.07700        1.82100
C          8.21700        4.80600        3.80200
H          7.72700        3.94100        4.24900
H          9.28400        4.58700        3.75600
C          8.02900        5.99800        4.70900
N          8.77800        7.17600        4.66800
C          8.28900        7.96000        5.63800
H          8.65900        8.95100        5.86600
N          7.28400        7.34000        6.28100
H          6.76700        7.71900        7.06100
C          7.10500        6.10000        5.70800
H          6.37700        5.34500        5.97300
C          6.16900        5.12200        2.24500
O          5.41300        4.83900        3.16900
N          5.68400        5.60200        1.10600
H          4.69100        5.71400        1.01300
H          6.32200        5.88400        0.37200
