67
0 1
H          1.71000       -2.66000        2.70800
C          2.02700       -1.77100        2.16300
H          2.80000       -1.25300        2.72800
H          1.17500       -1.11300        2.00700
C          2.58600       -2.19200        0.82500
O          2.62500       -3.37600        0.51800
N          3.01700       -1.21800        0.02800
H          2.99100       -0.26800        0.37000
C          3.65300       -1.42000       -1.28100
H          4.30100       -2.29500       -1.22300
C          2.57700       -1.70000       -2.34700
H          3.06000       -1.95300       -3.29000
H          1.99200       -2.57000       -2.04600
C          1.64200       -0.54800       -2.59700
N          1.96400        0.60100       -3.31600
C          0.86200        1.36300       -3.30200
H          0.78300        2.33400       -3.77000
N         -0.11700        0.76400       -2.60200
H         -1.03500        1.14900       -2.43800
C          0.35700       -0.44700       -2.14900
H         -0.16900       -1.18400       -1.55800
C          4.54200       -0.21600       -1.64600
O          4.64200        0.74500       -0.88200
N          5.20000       -0.27800       -2.80500
H          4.97600       -1.04000       -3.42700
C          6.22300        0.67100       -3.27700
H          7.05100        0.67900       -2.56800
C          6.74500        0.16400       -4.63000
H          7.43700        0.89500       -5.05200
H          7.30400       -0.75800       -4.46500
C          5.65500       -0.11600       -5.61700
C          5.03600        0.82000       -6.36700
H          5.28800        1.87500       -6.37900
N          3.94100        0.26400       -6.99100
H          3.23900        0.83900       -7.44000
C          3.80200       -1.07200       -6.68600
C          2.84700       -2.04200       -7.02500
H          2.01900       -1.78700       -7.66800
C          2.98400       -3.34400       -6.51400
H          2.26000       -4.10600       -6.76800
C          4.06800       -3.65700       -5.67300
H          4.17100       -4.66300       -5.28700
C          5.01600       -2.67300       -5.33000
H          5.84400       -2.92800       -4.68600
C          4.90500       -1.35400       -5.82600
C          5.76100        2.13700       -3.41300
O          6.61300        3.02200       -3.41000
N          4.45500        2.42300       -3.50300
H          3.79500        1.65300       -3.55600
C          3.91000        3.79100       -3.43200
H          4.70600        4.43300       -3.05100
C          3.57000        4.34300       -4.83200
H          3.46700        5.42600       -4.74900
H          4.41500        4.15600       -5.49600
C          2.31900        3.81500       -5.49700
N          2.22800        2.68300       -6.31200
C          0.95100        2.61300       -6.71300
H          0.55300        1.84100       -7.35900
N          0.24300        3.63700       -6.20900
H         -0.73400        3.82000       -6.38500
C          1.09000        4.40700       -5.44400
H          0.84900        5.30800       -4.89400
C          2.79200        3.93900       -2.38400
O          1.90600        4.77900       -2.49800
N          2.79900        3.12100       -1.33900
H          3.51900        2.41300       -1.25800
H          2.07400        3.21200       -0.65100
