59
0 1
H          0.31900       -4.91300       -6.03700
C          0.76600       -5.89800       -5.91000
H          0.81100       -6.40800       -6.87000
H          0.17800       -6.49000       -5.21200
C          2.16100       -5.73200       -5.35900
O          2.39900       -5.97700       -4.18000
N          3.09800       -5.30300       -6.20500
H          2.81900       -5.01600       -7.13500
C          4.50800       -5.11900       -5.83000
H          4.87800       -6.04800       -5.39600
C          5.33200       -4.80800       -7.08700
H          6.38700       -4.74600       -6.81300
H          5.22100       -5.62700       -7.79800
C          4.92800       -3.52500       -7.76700
N          3.79500       -3.36100       -8.56500
C          3.78800       -2.07200       -8.93100
H          3.03700       -1.62300       -9.56700
N          4.84000       -1.42500       -8.39900
H          5.06300       -0.45100       -8.54300
C          5.56900       -2.32600       -7.65500
H          6.46700       -2.13600       -7.08200
C          4.71500       -4.02800       -4.77100
O          5.73300       -4.03800       -4.08500
N          3.74100       -3.13200       -4.58800
H          2.92500       -3.20200       -5.18900
C          3.70200       -2.13100       -3.51500
H          4.61400       -1.53600       -3.56600
C          2.49400       -1.19600       -3.71700
H          1.56700       -1.74100       -3.53700
H          2.56000       -0.41400       -2.95900
C          2.42200       -0.50700       -5.09400
H          1.93000        0.45500       -4.95400
H          3.42700       -0.31100       -5.46800
C          1.62800       -1.27900       -6.15200
O          1.45000       -2.48500       -6.11300
N          1.11500       -0.61300       -7.16300
H          1.18900        0.38600       -7.21100
H          0.57700       -1.16100       -7.81000
C          3.65200       -2.75500       -2.10500
O          3.96100       -2.07600       -1.13000
N          3.30800       -4.04300       -2.00200
H          3.00900       -4.51500       -2.84700
C          3.32400       -4.83700       -0.77000
H          3.88600       -4.28100       -0.02000
C          1.89100       -5.00100       -0.22300
H          1.96600       -5.51000        0.73900
H          1.46500       -4.01600       -0.02300
C          0.92300       -5.81300       -1.10800
H          1.44900       -6.62700       -1.60500
H          0.17200       -6.26300       -0.45800
C          0.17200       -4.98900       -2.15600
O          0.36200       -3.81400       -2.43600
O         -0.81500       -5.64600       -2.79400
H         -1.17100       -4.99800       -3.40200
C          4.08600       -6.16900       -0.94700
O          3.85700       -7.13300       -0.22500
N          4.99400       -6.26200       -1.91200
H          5.47800       -7.13500       -2.02800
H          5.19800       -5.46200       -2.49400
