59
0 1
H         11.33200        7.95600        3.43900
C         11.13500        9.02600        3.47100
H         11.94400        9.56400        2.98000
H         11.04900        9.35800        4.50400
C          9.84200        9.31700        2.74700
O          9.83900       10.02300        1.74600
N          8.73400        8.78500        3.26000
H          8.81000        8.27000        4.12300
C          7.38700        8.98300        2.69500
H          7.39600        8.69000        1.64400
C          6.38500        8.08300        3.43900
H          5.36900        8.36400        3.15800
H          6.54400        7.05500        3.11200
C          6.50200        8.12400        4.94500
N          6.43700        9.27300        5.73200
C          6.59700        8.87000        6.99900
H          6.58800        9.53000        7.85700
N          6.76300        7.53700        7.04700
H          6.88700        6.99500        7.89100
C          6.70800        7.04800        5.76000
H          6.79600        6.01700        5.44600
C          6.92200       10.45000        2.70700
O          6.10100       10.83600        1.88000
N          7.48800       11.28300        3.58300
H          8.14000       10.89300        4.24900
C          7.25400       12.72900        3.64500
H          6.18100       12.92400        3.64200
C          7.86900       13.24400        4.95900
H          7.54300       14.27200        5.12200
H          7.51000       12.64200        5.79400
C          9.38200       13.21400        4.93900
N         10.17200       12.06500        5.04100
C         11.42600       12.46000        4.77100
H         12.28500       11.80300        4.73800
N         11.46000       13.77200        4.48500
H         12.27100       14.27400        4.12300
C         10.17900       14.26600        4.58900
H          9.84400       15.26600        4.34600
C          7.87900       13.50600        2.47400
O          7.56900       14.67900        2.29100
N          8.83100       12.91000        1.74700
H          9.01800       11.92900        1.92500
C          9.86800       13.67400        1.04800
H         10.13700       14.49100        1.71800
C         11.10800       12.77200        0.87800
H         11.31200       12.29000        1.83600
H         10.88400       11.99000        0.15200
C         12.39900       13.48800        0.44700
H         13.23100       12.78900        0.53300
H         12.33400       13.78600       -0.59800
C         12.70300       14.70500        1.31700
O         13.26400       14.63100        2.40600
O         12.24600       15.88300        0.82200
H         11.67000       15.74900        0.05300
C          9.42900       14.34300       -0.27000
O         10.20200       15.10300       -0.85200
N          8.22300       14.09400       -0.76200
H          7.58800       13.50800       -0.24100
H          7.93800       14.55800       -1.60800
