56
0 1
H         10.45700        2.06500        1.65000
C         10.71500        2.74000        2.46400
H         11.27000        2.19800        3.22800
H          9.81000        3.16100        2.89800
C         11.57700        3.85900        1.93000
O         12.69600        4.04800        2.39300
N         11.05600        4.59500        0.95100
H         10.14600        4.33900        0.59100
C         11.71900        5.73100        0.29700
H         12.79400        5.65300        0.46300
C         11.46800        5.59500       -1.21200
H         12.07700        6.33100       -1.74100
H         11.78300        4.60500       -1.54500
C         10.02000        5.79700       -1.58800
N          8.97500        4.92400       -1.27400
C          7.86100        5.50300       -1.74300
H          6.87000        5.07200       -1.67000
N          8.14800        6.68700       -2.31000
H          7.47700        7.31000       -2.73800
C          9.50700        6.89300       -2.21700
H         10.06700        7.75300       -2.55800
C         11.32000        7.16200        0.74000
O         12.10600        8.06300        0.44300
N         10.15900        7.46600        1.37200
C          9.18400        6.56900        1.98100
H          9.65800        5.87500        2.67400
H          8.64600        6.02800        1.20200
C          8.21200        7.45700        2.75300
H          8.60800        7.65400        3.75100
H          7.21800        7.01300        2.81200
C          8.21500        8.74200        1.93300
H          7.90200        9.60300        2.52600
H          7.56300        8.62100        1.06700
C          9.66900        8.85100        1.46300
H          9.68200        9.30300        0.47100
C         10.49500        9.76400        2.38600
O         10.38100       10.98200        2.29600
N         11.33900        9.19700        3.25100
H         11.35200        8.18500        3.29400
C         12.31100        9.92400        4.07400
H         11.80500       10.80300        4.47700
C         12.73400        9.04600        5.27300
H         13.21900        9.70300        5.99700
H         11.84400        8.64300        5.75900
C         13.71900        7.89400        4.97500
H         14.58600        8.27300        4.43600
H         14.08300        7.50400        5.92600
C         13.13000        6.71400        4.20100
O         11.94400        6.55800        3.93500
O         14.04300        5.80900        3.80400
H         13.56300        5.11300        3.31200
C         13.53200       10.45200        3.28700
O         14.39500       11.10600        3.86000
N         13.66900       10.15900        1.99900
H         12.97400        9.59900        1.52200
H         14.47200       10.51700        1.51100
