67
0 1
H          2.11400        8.18400       -3.33700
C          2.96500        7.75200       -2.81600
H          3.89000        8.19400       -3.18700
H          2.99000        6.67700       -2.97400
C          2.84500        8.04800       -1.34100
O          3.58400        8.86400       -0.80700
N          1.92500        7.37200       -0.65700
H          1.36200        6.67900       -1.13600
C          1.69000        7.55500        0.78400
H          1.53500        8.61600        0.98300
C          0.41900        6.79500        1.18600
H          0.26200        6.89300        2.26100
H         -0.43600        7.24400        0.68100
C          0.47300        5.33600        0.82100
N          0.26300        4.83100       -0.46300
C          0.52300        3.52000       -0.38500
H          0.47200        2.83600       -1.22200
N          0.89800        3.18700        0.86200
H          1.21100        2.27100        1.14900
C          0.88000        4.32300        1.63800
H          1.17800        4.41900        2.67300
C          2.87700        7.12400        1.66000
O          3.00600        7.62000        2.77500
N          3.76800        6.25500        1.16600
H          3.59100        5.84900        0.26100
C          5.04100        5.94300        1.83800
H          4.83500        5.66800        2.87300
C          5.74600        4.76700        1.14400
H          6.18200        5.13600        0.21600
H          6.57900        4.45300        1.77500
C          4.93800        3.55500        0.79400
C          4.80400        2.44800        1.55800
H          5.25700        2.31900        2.53500
N          4.06300        1.49900        0.88000
H          3.90200        0.56700        1.23400
C          3.68700        1.95000       -0.36900
C          2.97600        1.36200       -1.42600
H          2.61400        0.34800       -1.34500
C          2.75600        2.10700       -2.59700
H          2.21700        1.67000       -3.42700
C          3.24200        3.42500       -2.69300
H          3.07100        3.99300       -3.59700
C          3.96200        4.00200       -1.62800
H          4.35300        5.00500       -1.72200
C          4.20400        3.27900       -0.44000
C          6.02000        7.13100        1.86400
O          6.94800        7.14000        2.66800
N          5.84500        8.10200        0.96200
H          5.06300        8.02500        0.32300
C          6.79400        9.18600        0.68900
H          7.76100        8.92200        1.11900
C          6.97400        9.30700       -0.83500
H          6.05800        9.70400       -1.27300
H          7.77200       10.02100       -1.04100
C          7.30200        8.00100       -1.52500
N          6.37800        7.02900       -1.93000
C          7.10100        6.02700       -2.44800
H          6.68200        5.11400       -2.85300
N          8.41300        6.30900       -2.38200
H          9.15900        5.70600       -2.69700
C          8.55900        7.54900       -1.79900
H          9.48200        8.06800       -1.58000
C          6.39700       10.52700        1.32500
O          7.10600       11.51600        1.18100
N          5.27800       10.59900        2.03500
H          4.70800        9.77500        2.15000
H          5.02600       11.48000        2.44700
