58
0 1
H         -2.89500        7.08000       -5.76500
C         -3.87000        7.23300       -5.30700
H         -3.75000        7.40400       -4.23800
H         -4.49800        6.35900       -5.46900
C         -4.52900        8.44300       -5.92500
O         -4.83800        9.40100       -5.22900
N         -4.74300        8.39900       -7.23800
H         -4.49000        7.56100       -7.74000
C         -5.40300        9.45600       -8.01600
H         -6.20400        9.88800       -7.41400
C         -4.39600       10.57500       -8.33500
H         -4.91100       11.38800       -8.84800
H         -4.00800       10.98100       -7.40000
C         -3.23700       10.13300       -9.19100
N         -3.31400        9.81600      -10.54700
C         -2.06700        9.47700      -10.91200
H         -1.77600        9.17400      -11.90800
N         -1.23000        9.55900       -9.86500
H         -0.23900        9.36200       -9.89900
C         -1.95100        9.97200       -8.76700
H         -1.58400       10.14300       -7.76500
C         -6.04100        8.88200       -9.29100
O         -5.87400        7.70600       -9.61200
N         -6.78300        9.71700      -10.02100
H         -6.83400       10.68200       -9.71200
C         -7.63000        9.33800      -11.16100
H         -8.27400        8.51900      -10.83900
C         -8.53200       10.53100      -11.54700
H         -7.91600       11.39600      -11.79900
H         -9.08600       10.25400      -12.44500
C         -9.57900       10.92300      -10.48500
H        -10.36700       11.49100      -10.98000
H        -10.03800       10.02400      -10.07200
C         -9.05600       11.78800       -9.33600
O         -7.89400       12.13400       -9.16500
O         -9.99200       12.16500       -8.44600
H         -9.53500       12.69700       -7.79300
C         -6.87500        8.80900      -12.40300
O         -7.52300        8.37200      -13.35000
N         -5.53800        8.82800      -12.41600
H         -5.05600        9.21400      -11.61200
C         -4.70000        8.24900      -13.47700
H         -5.35300        7.76500      -14.20500
C         -3.98800        9.40300      -14.21400
H         -4.76600       10.08600      -14.56000
H         -3.36600        9.96500      -13.51700
C         -3.16600        8.99500      -15.45400
H         -3.58500        8.09200      -15.89800
H         -3.25000        9.78800      -16.19700
C         -1.67200        8.78800      -15.19600
O         -1.06300        9.09000      -14.17700
O         -0.98900        8.27300      -16.23500
H         -0.09300        8.16900      -15.91400
C         -3.77600        7.12100      -12.95800
O         -2.98100        6.56200      -13.70300
N         -3.86700        6.73200      -11.69200
H         -3.27400        5.98400      -11.37900
H         -4.53800        7.16500      -11.07000
