66
0 1
H          5.56200        6.67500        3.16800
C          5.98800        5.71600        3.45400
H          5.35500        4.90600        3.09700
H          6.07500        5.66300        4.53900
C          7.36300        5.58100        2.84500
O          8.34900        5.48100        3.56600
N          7.42300        5.56700        1.51600
H          6.55200        5.55200        0.99900
C          8.65200        5.39500        0.72200
H          9.45100        5.00700        1.35500
C          8.35500        4.36300       -0.37700
H          9.25900        4.18300       -0.95900
H          8.06100        3.42000        0.08600
C          7.25000        4.81300       -1.30100
N          5.89100        4.81600       -0.97900
C          5.27400        5.41100       -2.00900
H          4.20900        5.59100       -2.06500
N          6.16700        5.80400       -2.93100
H          5.95000        6.38200       -3.73600
C          7.42300        5.44000       -2.50000
H          8.37000        5.65700       -2.97600
C          9.17900        6.68900        0.07800
O         10.30600        6.70200       -0.40900
N          8.38500        7.76600        0.03400
H          7.47100        7.68700        0.45100
C          8.67200        8.97600       -0.75900
H          8.76600        8.68600       -1.80600
C          7.49200        9.94900       -0.63200
H          7.44000       10.30100        0.39900
H          7.69300       10.81700       -1.26200
C          6.15200        9.40100       -1.02300
C          5.10900        9.19900       -0.18500
H          5.11900        9.41500        0.87700
N          4.03100        8.70700       -0.89500
H          3.13500        8.50500       -0.47600
C          4.32700        8.56800       -2.23400
C          3.58700        8.11200       -3.33600
H          2.56000        7.80000       -3.21300
C          4.19500        8.08000       -4.60300
H          3.63500        7.74600       -5.46700
C          5.52800        8.50500       -4.75100
H          5.98800        8.49800       -5.73100
C          6.26000        8.96400       -3.63700
H          7.27900        9.30300       -3.76600
C          5.68100        9.00300       -2.34900
C          9.97800        9.69800       -0.38900
O         10.56500       10.37200       -1.22800
N         10.44300        9.54300        0.85100
H          9.87600        8.99700        1.48700
C         11.71700       10.06600        1.35700
H         11.81700       11.09000        0.99300
C         11.66600       10.12700        2.90000
H         12.51600       10.72700        3.22800
H         10.76500       10.65800        3.21200
C         11.74600        8.77600        3.64500
H         12.58900        8.19400        3.27500
H         11.93800        8.98000        4.69800
C         10.48200        7.91700        3.57700
O          9.40700        8.26400        3.10000
O         10.62800        6.68100        4.09000
H          9.77200        6.22300        3.97200
C         12.96400        9.30600        0.85300
O         14.08300        9.66400        1.20100
N         12.82400        8.23900        0.07500
H         13.65300        7.76600       -0.24100
H         11.90400        7.91900       -0.20000
