60
0 1
H          3.17100       14.66300       -3.98200
C          4.22000       14.41900       -3.82500
H          4.67900       15.17400       -3.18800
H          4.74100       14.38100       -4.77900
C          4.32400       13.07500       -3.14400
O          4.86500       12.97600       -2.04900
N          3.80600       12.03200       -3.79300
H          3.39500       12.18600       -4.69900
C          3.87300       10.65600       -3.28800
H          3.59000       10.65100       -2.23300
C          2.85800        9.78000       -4.03500
H          1.86100       10.20500       -3.91700
H          3.09900        9.75600       -5.09900
C          2.83700        8.37200       -3.50100
N          2.21200        7.97500       -2.32000
C          2.52700        6.68200       -2.15600
H          2.21300        6.07700       -1.31500
N          3.33300        6.26600       -3.14700
H          3.80900        5.36500       -3.18200
C          3.54400        7.32000       -4.00400
H          4.19400        7.34500       -4.86800
C          5.30000       10.09200       -3.39000
O          5.70700        9.57900       -4.43000
N          6.06800       10.19600       -2.30400
H          5.69600       10.70100       -1.51000
C          7.46300        9.73700       -2.23200
H          7.95900       10.02800       -3.15900
C          8.17800       10.46000       -1.07400
H          9.25100       10.31000       -1.19900
H          7.99100       11.53200       -1.14800
C          7.80500        9.97100        0.33800
H          8.06800        8.91600        0.42200
H          8.42500       10.50900        1.05600
S          6.07000       10.16000        0.84900
C          5.96100       11.96300        1.01100
H          4.94600       12.24100        1.29500
H          6.65500       12.30500        1.77900
H          6.20600       12.44100        0.06300
C          7.62000        8.21100       -2.10800
O          8.69000        7.68400       -2.40500
N          6.58800        7.49100       -1.65100
H          5.73000        7.98100       -1.44500
C          6.65000        6.04900       -1.36900
H          7.65300        5.82000       -1.00000
C          5.68100        5.70200       -0.22800
H          5.83100        6.40800        0.59000
H          4.65200        5.79800       -0.57000
C          5.90300        4.31500        0.31800
N          6.98200        3.93700        1.11600
C          6.83000        2.62600        1.34500
H          7.51000        2.02600        1.93500
N          5.72500        2.16700        0.73200
H          5.40700        1.20900        0.74000
C          5.12700        3.22000        0.07500
H          4.24400        3.19200       -0.54700
C          6.46000        5.19400       -2.63600
O          5.47900        4.47000       -2.79900
N          7.36500        5.32200       -3.59500
H          7.25400        4.79700       -4.44500
H          8.13100        5.97100       -3.46400
