57
0 1
H          6.33500        7.84000       -7.94100
C          5.96000        7.51500       -6.97200
H          5.93000        6.42900       -6.93200
H          4.96300        7.92000       -6.80900
C          6.88200        8.03000       -5.89200
O          6.45800        8.78000       -5.02000
N          8.14700        7.62100       -5.94000
H          8.44400        7.04400       -6.71700
C          9.20100        8.15200       -5.07100
H          8.78400        8.27800       -4.07200
C         10.34300        7.12400       -5.00400
H         11.05200        7.41600       -4.23100
H          9.93500        6.15300       -4.72300
C         11.08900        6.97300       -6.30500
N         10.58900        6.37600       -7.46200
C         11.54100        6.53700       -8.39500
H         11.45700        6.20300       -9.42100
N         12.59700        7.19100       -7.88200
H         13.42200        7.49400       -8.39800
C         12.32900        7.47500       -6.56200
H         12.95700        8.02000       -5.87300
C          9.69100        9.53100       -5.57200
O          9.54800        9.83900       -6.75700
N         10.30400       10.37500       -4.71600
C         10.45000       10.18900       -3.27700
H         10.95900        9.25700       -3.03600
H          9.46400       10.21100       -2.80900
C         11.27800       11.37300       -2.77800
H         12.34100       11.13500       -2.84200
H         11.00700       11.65600       -1.76000
C         10.93200       12.47000       -3.78300
H         11.68600       13.25700       -3.81100
H          9.96100       12.89700       -3.52900
C         10.81500       11.69500       -5.10400
H         10.07800       12.19800       -5.73300
C         12.13100       11.61000       -5.90900
O         13.18400       12.04800       -5.44900
N         12.06000       11.04500       -7.12000
H         11.14000       10.69600       -7.37900
C         13.12100       10.87400       -8.13500
H         12.65500       10.37500       -8.98600
C         13.59100       12.24000       -8.66000
H         14.15400       12.75600       -7.88200
H         14.25900       12.08100       -9.50700
C         12.45800       13.12500       -9.11200
N         11.67100       12.90500      -10.24100
C         10.75800       13.88600      -10.25000
H          9.99000       13.99800      -11.00300
N         10.93100       14.69900       -9.19300
H         10.36400       15.50700       -8.97900
C         12.00000       14.23200       -8.45900
H         12.39700       14.63800       -7.54000
C         14.30700        9.97600       -7.74500
O         14.66800        9.07500       -8.49600
N         14.90400       10.14400       -6.57600
H         15.68400        9.55500       -6.33700
H         14.58300       10.88400       -5.96400
