64
0 1
H          3.33500       13.58300       -3.62800
C          2.40800       13.05100       -3.42200
H          2.16100       12.40900       -4.26400
H          1.60200       13.76500       -3.25900
C          2.58000       12.20500       -2.18300
O          1.88200       12.40100       -1.19300
N          3.50100       11.24500       -2.23500
H          4.11200       11.20600       -3.04000
C          3.66800       10.19700       -1.21600
H          2.69600        9.73900       -1.02700
C          4.60400        9.11800       -1.77700
H          4.66400        8.29600       -1.06200
H          4.18200        8.72300       -2.70200
C          5.99500        9.62300       -2.06200
N          6.35000       10.49100       -3.09800
C          7.66600       10.70800       -2.95600
H          8.25500       11.33800       -3.60900
N          8.14100       10.04000       -1.89100
H          9.09100       10.06400       -1.55000
C          7.10100        9.34900       -1.31600
H          7.13400        8.73000       -0.43000
C          4.17200       10.69500        0.14800
O          3.97600       10.00300        1.14200
N          4.77100       11.88900        0.21300
H          4.90200       12.39500       -0.65400
C          5.09900       12.60000        1.46000
H          4.77400       12.00100        2.31100
C          6.62400       12.81000        1.58000
H          6.92700       13.49500        0.79000
H          6.82200       13.31100        2.52800
C          7.53800       11.59200        1.53600
C          7.13900       10.34800        2.07000
H          6.14900       10.22300        2.48600
C          8.03100        9.25900        2.07700
H          7.72800        8.30600        2.48400
C          9.33600        9.41100        1.56700
O         10.19400        8.35800        1.58100
H         11.10900        8.63100        1.50900
C          9.74800       10.65700        1.04600
H         10.75300       10.78200        0.67400
C          8.84800       11.74100        1.03400
H          9.16900       12.70300        0.66000
C          4.33600       13.93800        1.57400
O          4.75800       14.83200        2.30500
N          3.25100       14.11300        0.80600
H          2.95400       13.33600        0.22900
C          2.69600       15.43800        0.48400
H          3.06700       16.16900        1.20300
C          3.18200       15.85900       -0.91700
H          2.57700       15.34800       -1.66400
H          3.01600       16.93000       -1.03900
C          4.63200       15.54900       -1.21600
N          5.11200       14.34300       -1.74000
C          6.44400       14.47300       -1.80700
H          7.11400       13.70500       -2.17100
N          6.82200       15.67600       -1.33900
H          7.77300       16.00600       -1.26600
C          5.69200       16.36600       -0.95700
H          5.64100       17.35100       -0.51300
C          1.16400       15.51600        0.55000
O          0.61000       16.59500        0.71500
N          0.44900       14.40500        0.43100
H         -0.55200       14.47200        0.48400
H          0.90800       13.53100        0.21300
