58
0 1
H          6.13100       12.10700        0.28500
C          5.80200       12.80100       -0.48700
H          6.25300       13.77700       -0.31900
H          4.71700       12.88600       -0.45900
C          6.22500       12.27500       -1.83700
O          6.84100       11.21900       -1.92400
N          5.93500       13.03400       -2.89600
H          5.50300       13.93300       -2.73600
C          6.22900       12.66500       -4.29300
H          5.63900       11.78800       -4.56300
C          5.83200       13.83800       -5.20700
H          5.86200       13.50100       -6.24400
H          4.81100       14.15100       -4.98500
C          6.75800       15.02000       -5.05600
N          6.85600       15.82200       -3.91600
C          7.95600       16.57100       -4.08700
H          8.33500       17.28100       -3.36300
N          8.56400       16.25500       -5.24300
H          9.50300       16.54300       -5.50900
C          7.82000       15.28300       -5.87100
H          8.08600       14.74300       -6.77000
C          7.70800       12.30700       -4.51900
O          8.01100       11.41800       -5.30900
N          8.61700       12.95800       -3.78300
H          8.27000       13.71100       -3.20800
C         10.06900       12.75600       -3.84900
H         10.37200       12.90400       -4.88600
C         10.74200       13.83400       -2.97300
H         10.16200       14.75800       -3.01100
H         10.73700       13.49100       -1.93800
C         12.19000       14.16100       -3.38100
H         12.65900       14.72200       -2.57400
H         12.76500       13.24500       -3.51500
C         12.29700       15.00900       -4.65000
O         11.37400       15.59400       -5.20600
O         13.54400       15.12700       -5.14300
H         13.47200       15.66800       -5.93000
C         10.51300       11.33300       -3.43800
O         11.66200       10.96600       -3.66400
N          9.61700       10.53000       -2.85200
H          8.69000       10.90400       -2.67800
C          9.82600        9.11100       -2.54900
H         10.65700        8.75400       -3.15900
C         10.23800        8.94000       -1.07300
H         10.58500        7.91500       -0.93400
H         11.09100        9.59000       -0.86600
C          9.11700        9.25200       -0.05800
H          9.38600       10.14700        0.50300
H          8.17900        9.45600       -0.57100
C          8.86300        8.11400        0.92800
O          9.04300        8.22800        2.13300
O          8.44000        6.94900        0.37200
H          8.34700        7.01200       -0.59300
C          8.60900        8.24900       -2.94800
O          8.29800        7.26100       -2.28700
N          7.86700        8.62800       -3.98100
H          7.06000        8.07700       -4.22100
H          8.10600        9.46100       -4.50400
