59
0 1
H          9.04300        3.52700       -4.60100
C          8.04300        3.18200       -4.33700
H          7.91800        2.14700       -4.64600
H          7.30300        3.81100       -4.82900
C          7.86300        3.28400       -2.84300
O          6.93000        3.92600       -2.36900
N          8.76400        2.66300       -2.08500
H          9.57400        2.25800       -2.54000
C          8.71500        2.57900       -0.61500
H          7.79300        2.08000       -0.31600
C          9.90600        1.73700       -0.13100
H          9.89400        1.68400        0.95800
H          9.80400        0.72300       -0.51700
C         11.23300        2.28900       -0.58800
N         11.74100        2.16300       -1.88100
C         12.85700        2.90600       -1.91100
H         13.48300        3.03300       -2.78500
N         13.07100        3.48000       -0.71400
H         13.83600        4.10300       -0.49600
C         12.05100        3.10800        0.13300
H         11.89000        3.43400        1.15200
C          8.71800        3.94600        0.08700
O          8.24600        4.04500        1.21400
N          9.20500        5.00100       -0.57100
H          9.64500        4.82800       -1.46900
C          9.15800        6.37800       -0.06700
H          9.57600        6.37500        0.94100
C         10.04900        7.28700       -0.94000
H         10.13400        8.24900       -0.43200
H         11.05400        6.86500       -0.99600
C          9.51800        7.55700       -2.36400
H          8.48400        7.89500       -2.32000
H         10.10100        8.36800       -2.79900
C          9.63900        6.36000       -3.30400
O         10.45500        5.45700       -3.16100
O          8.77100        6.36100       -4.34300
H          8.00200        6.92600       -4.15900
C          7.73800        6.97200        0.05400
O          7.58400        7.99500        0.71500
N          6.71600        6.39500       -0.59800
H          6.89800        5.57100       -1.15900
C          5.34300        6.93600       -0.56500
H          5.18400        7.39500        0.41200
C          5.19200        8.04700       -1.62100
H          4.26100        8.58200       -1.42900
H          6.00400        8.76600       -1.50900
C          5.16700        7.56200       -3.05000
N          6.26900        7.45300       -3.90600
C          5.78300        6.96000       -5.05900
H          6.38000        6.74900       -5.93800
N          4.46000        6.75400       -4.96700
H          3.87100        6.37700       -5.69600
C          4.05300        7.12800       -3.70700
H          3.05400        7.07700       -3.29400
C          4.22000        5.89100       -0.70800
O          3.04800        6.23000       -0.59600
N          4.51800        4.62500       -0.96000
H          5.47200        4.34900       -1.14100
H          3.76200        3.96700       -1.04300
