64
0 1
H          3.61400        4.74200      -10.79100
C          4.58200        4.58500      -10.31700
H          5.35800        4.53200      -11.07800
H          4.56000        3.66100       -9.74200
C          4.86600        5.74400       -9.39100
O          4.05800        6.65500       -9.27800
N          6.02200        5.71000       -8.73000
H          6.65000        4.93800       -8.89800
C          6.47700        6.74500       -7.79300
H          6.07900        7.71100       -8.11100
C          5.91300        6.45000       -6.39500
H          4.83200        6.60000       -6.40600
H          6.10800        5.40500       -6.14800
C          6.50800        7.31100       -5.31200
N          6.62000        8.70300       -5.35300
C          7.23900        9.04900       -4.21400
H          7.49900       10.06100       -3.93400
N          7.52000        7.96100       -3.48300
H          8.05600        7.96400       -2.61400
C          7.07100        6.85200       -4.16000
H          7.15200        5.81900       -3.85000
C          8.00800        6.85400       -7.79700
O          8.70600        5.85700       -7.97600
N          8.54000        8.06400       -7.60300
H          7.92100        8.81100       -7.31900
C          9.95800        8.37900       -7.82500
H         10.24900        7.89300       -8.75700
C         10.12900        9.89100       -8.04300
H         11.08400       10.04900       -8.54800
H          9.35500       10.24500       -8.72600
C         10.11600       10.74600       -6.78800
C         11.33000       11.03800       -6.13600
H         12.26100       10.64400       -6.52600
C         11.33600       11.83200       -4.97400
H         12.26400       12.05300       -4.46800
C         10.12400       12.33600       -4.46200
O         10.13100       13.04600       -3.30400
H          9.36800       13.62400       -3.23800
C          8.90800       12.06300       -5.12500
H          7.97800       12.45100       -4.73700
C          8.90700       11.26600       -6.28700
H          7.97300       11.05300       -6.79100
C         10.92400        7.83100       -6.75500
O         12.13500        7.89300       -6.95100
N         10.42600        7.27000       -5.64500
H          9.42500        7.28900       -5.51100
C         11.24900        6.48400       -4.70300
H         12.25000        6.91600       -4.66300
C         10.66000        6.54200       -3.28100
H          9.68800        6.05000       -3.28300
H         11.30900        5.97200       -2.61500
C         10.50300        7.92000       -2.67500
N          9.73700        8.20400       -1.53900
C          9.86800        9.52000       -1.31900
H          9.39900       10.05700       -0.50400
N         10.64900       10.07500       -2.25900
H         10.86500       11.06400       -2.34000
C         11.06800        9.08100       -3.11500
H         11.71300        9.19200       -3.97600
C         11.45500        5.02200       -5.14700
O         12.16900        4.27500       -4.49100
N         10.84500        4.56900       -6.23500
H         10.25000        5.17300       -6.78600
H         11.00700        3.61400       -6.50700
