58
0 1
H          2.02000       12.93300        4.51000
C          3.03300       12.56800        4.35700
H          3.28000       11.83600        5.12500
H          3.73700       13.39700        4.41100
C          3.13300       11.91700        2.99900
O          3.45600       10.73700        2.89900
N          2.87400       12.68900        1.94700
H          2.67900       13.67000        2.11200
C          2.77500       12.23100        0.55100
H          2.24400       11.27700        0.53400
C          1.94100       13.26200       -0.22500
H          1.76200       12.89600       -1.23600
H          0.97100       13.38000        0.26100
C          2.60900       14.61300       -0.30000
N          2.75700       15.49500        0.77200
C          3.45300       16.53800        0.29500
H          3.73200       17.40600        0.87800
N          3.75700       16.34700       -1.00100
H          4.28000       16.98800       -1.58000
C          3.23900       15.13200       -1.39200
H          3.32400       14.66000       -2.36200
C          4.11700       11.99800       -0.16800
O          4.11400       11.58700       -1.32400
N          5.26000       12.25600        0.47500
H          5.18300       12.60800        1.42000
C          6.60100       12.20000       -0.14100
H          6.61100       12.93700       -0.94500
C          7.67700       12.63000        0.88200
H          8.61800       12.76100        0.34700
H          7.40100       13.60300        1.29300
C          7.93100       11.65300        2.04900
H          8.28300       10.69900        1.66200
H          8.71000       12.05900        2.69400
C          6.67700       11.44200        2.88400
O          6.10600       12.33300        3.49500
O          6.10300       10.22700        2.75900
H          5.21100       10.29600        3.14100
C          6.97900       10.85400       -0.79900
O          7.77000       10.85700       -1.73500
N          6.42600        9.71800       -0.35100
H          5.80600        9.77000        0.44400
C          6.63300        8.40600       -0.99400
H          7.61700        8.41200       -1.46400
C          6.63400        7.27700        0.05800
H          5.64400        7.21000        0.51000
H          6.83000        6.33200       -0.45000
C          7.68000        7.43100        1.17900
H          7.37200        8.22300        1.85600
H          7.71100        6.50200        1.74600
C          9.09500        7.74000        0.69400
O          9.79900        8.63900        1.12800
O          9.55400        6.96800       -0.31000
H         10.42500        7.31000       -0.51500
C          5.64800        8.10100       -2.14600
O          5.62100        6.99300       -2.66800
N          4.80500        9.03700       -2.56400
H          4.18100        8.81200       -3.31900
H          4.80500        9.95700       -2.14400
