59
0 1
H          2.13800        7.73700      -11.87500
C          2.90900        8.11900      -12.54200
H          2.50500        8.91800      -13.15900
H          3.27800        7.31300      -13.17300
C          4.05100        8.65300      -11.71000
O          4.04500        8.52100      -10.49400
N          5.01600        9.30000      -12.36300
H          4.90900        9.44300      -13.35800
C          6.24300        9.83100      -11.74200
H          6.78400        9.00500      -11.27700
C          7.11900       10.43500      -12.84900
H          8.08000       10.72000      -12.42000
H          7.30700        9.68000      -13.61300
C          6.49800       11.64600      -13.50700
N          5.33800       11.63800      -14.28700
C          5.13500       12.91200      -14.65300
H          4.32100       13.24700      -15.28300
N          6.08500       13.70900      -14.13300
H          6.15400       14.70800      -14.27300
C          6.95200       12.92700      -13.40300
H          7.82400       13.25200      -12.85100
C          5.99500       10.88200      -10.64600
O          6.87000       11.12200       -9.81300
N          4.80000       11.47500      -10.61300
H          4.14200       11.20000      -11.32700
C          4.30400       12.35000       -9.54300
H          5.04600       13.12400       -9.34100
C          3.01400       13.02700      -10.03300
H          2.57800       13.60800       -9.21800
H          3.26800       13.72000      -10.83500
C          1.97800       12.05500      -10.54400
N          1.30100       11.11700       -9.76800
C          0.51500       10.43200      -10.60800
H         -0.14900        9.63000      -10.31000
N          0.66700       10.88600      -11.86500
H          0.16500       10.54300      -12.67200
C          1.59400       11.90600      -11.84600
H          1.95400       12.48100      -12.68800
C          4.06900       11.63100       -8.20000
O          3.94000       12.30600       -7.18400
N          4.06600       10.29100       -8.17300
H          4.11900        9.80300       -9.06100
C          3.90800        9.44700       -6.97500
H          3.92200        8.41800       -7.33600
C          5.11300        9.59200       -6.01600
H          4.98700       10.50500       -5.43200
H          5.10100        8.75400       -5.31800
C          6.49600        9.64900       -6.69000
H          6.57900       10.57000       -7.26400
H          7.25900        9.68700       -5.91300
C          6.79700        8.44600       -7.58200
O          6.48900        7.29500       -7.30400
O          7.49300        8.74400       -8.70900
H          7.47800        9.69600       -8.88200
C          2.55700        9.59400       -6.23800
O          2.39700        9.12800       -5.11600
N          1.54900       10.21900       -6.83600
H          0.68700       10.32300       -6.33000
H          1.67000       10.60800       -7.76000
