60
0 1
H          8.53100        2.90100        4.39900
C          8.56300        3.48300        5.31800
H          8.63400        4.54300        5.07500
H          9.42400        3.18800        5.91500
C          7.29900        3.24300        6.10700
O          6.55200        4.17700        6.37500
N          7.05800        1.98900        6.48500
H          7.72400        1.28000        6.22800
C          5.87600        1.57400        7.25500
H          5.01400        2.11000        6.86400
C          5.60600        0.07200        7.05200
H          6.44900       -0.50100        7.44000
H          4.72100       -0.20500        7.62600
C          5.36700       -0.31700        5.61400
N          4.26800        0.06800        4.84300
C          4.44000       -0.50600        3.64300
H          3.75300       -0.40600        2.81100
N          5.57500       -1.22600        3.62400
H          5.91200       -1.76500        2.83900
C          6.17300       -1.12100        4.86100
H          7.09000       -1.59200        5.18800
C          5.97700        1.95500        8.74200
O          6.12900        1.09400        9.60500
N          5.88600        3.25200        9.04700
H          5.80800        3.90800        8.27700
C          5.79900        3.77500       10.42400
H          6.66500        3.43500       10.99300
C          5.81300        5.31400       10.37900
H          5.77200        5.69600       11.39900
H          6.75000        5.64900        9.93400
C          4.66400        5.90800        9.60000
N          3.37400        6.09300       10.09400
C          2.63000        6.48600        9.05100
H          1.56600        6.68100        9.09700
N          3.38400        6.56700        7.94300
H          3.03700        6.77900        7.01900
C          4.67200        6.20500        8.26800
H          5.51300        6.11100        7.59400
C          4.55800        3.24700       11.16800
O          4.62000        2.97400       12.36200
N          3.46900        3.00600       10.43400
H          3.47500        3.35400        9.48300
C          2.24600        2.31700       10.86200
H          1.94500        2.70900       11.83300
C          1.15000        2.64500        9.83100
H          0.24500        2.07800       10.05000
H          0.90400        3.70400        9.91700
C          1.57900        2.37900        8.40700
N          2.15100        3.32700        7.55400
C          2.50700        2.66200        6.44700
H          3.00600        3.10600        5.59600
N          2.23400        1.35400        6.57900
H          2.53400        0.63800        5.92200
C          1.64700        1.15400        7.81000
H          1.35100        0.21300        8.25500
C          2.40600        0.79100       11.03700
O          1.42400        0.08300       11.22900
N          3.60400        0.22900       10.93700
H          3.68000       -0.76400       11.06700
H          4.42300        0.79800       10.77500
