59
0 1
H          2.18700        6.22200        4.95500
C          1.56400        5.61100        5.60500
H          1.00100        6.24900        6.28300
H          2.19100        4.92900        6.17700
C          0.60200        4.80800        4.76200
O          0.61700        3.58300        4.81000
N         -0.24600        5.50000        4.00400
H         -0.23400        6.51000        4.07800
C         -1.30000        4.91500        3.15800
H         -1.42900        3.85900        3.40000
C         -2.60900        5.65500        3.46800
H         -3.43000        5.14700        2.96100
H         -2.80300        5.61700        4.54100
C         -2.58100        7.10000        3.02600
N         -1.72200        8.08100        3.53000
C         -1.97800        9.19200        2.82400
H         -1.48100       10.14100        2.97500
N         -2.93100        8.95600        1.90500
H         -3.29500        9.63400        1.25100
C         -3.31900        7.63800        2.01400
H         -4.04800        7.11500        1.40800
C         -1.01600        5.00300        1.64900
O         -1.64200        4.29300        0.86600
N         -0.10400        5.88300        1.22500
H          0.40600        6.39600        1.93000
C          0.11800        6.25900       -0.18100
H         -0.84000        6.57500       -0.59500
C          1.07500        7.46400       -0.24500
H          1.18600        7.75200       -1.29100
H          0.63100        8.30800        0.28400
C          2.47700        7.19800        0.32900
H          2.83200        6.23100       -0.02800
H          3.15500        7.95700       -0.06100
S          2.58800        7.24300        2.14100
C          4.12500        6.31200        2.37600
H          4.35700        6.25400        3.43900
H          4.00400        5.30200        1.98200
H          4.94100        6.81100        1.85400
C          0.61600        5.11200       -1.07900
O          0.48600        5.19400       -2.29600
N          1.16200        4.04400       -0.49700
H          1.27600        4.07500        0.51000
C          1.54900        2.81000       -1.19000
H          2.01500        3.09800       -2.13400
C          2.61700        2.06100       -0.36200
H          3.05000        1.29700       -1.01000
H          3.42200        2.74900       -0.10200
C          2.12200        1.34700        0.91500
H          1.25400        0.72900        0.68800
H          2.91000        0.67600        1.25600
C          1.78200        2.27200        2.08300
O          1.98200        3.48100        2.11400
O          1.21100        1.64900        3.13100
H          1.02400        2.33400        3.80400
C          0.35900        1.89600       -1.55900
O          0.55400        0.85400       -2.17300
N         -0.87100        2.22000       -1.17600
H         -1.04000        3.06300       -0.64300
H         -1.62600        1.60800       -1.43100
