65
0 1
H          3.95900        6.71200       -6.87700
C          4.37100        6.25000       -5.98200
H          4.16800        6.87400       -5.11300
H          5.44700        6.12800       -6.09900
C          3.74300        4.89200       -5.78700
O          4.43200        3.88000       -5.85500
N          2.43100        4.87400       -5.54800
H          1.95900        5.76300       -5.48500
C          1.63500        3.65400       -5.31300
H          2.28700        2.78300       -5.37600
C          1.03900        3.69500       -3.89000
H          0.36700        4.55200       -3.82500
H          0.43900        2.79600       -3.73900
C          2.06600        3.78400       -2.74400
H          2.67700        4.67900       -2.86600
C          1.33000        3.89300       -1.40800
H          0.68900        4.77500       -1.41000
H          0.72000        3.00500       -1.24200
H          2.05100        3.98900       -0.59700
C          2.98300        2.56100       -2.68100
H          3.64200        2.63800       -1.81700
H          2.39000        1.65000       -2.60200
H          3.60400        2.51100       -3.57500
C          0.54400        3.41400       -6.37600
O         -0.20400        2.44400       -6.29100
N          0.44900        4.28200       -7.38700
H          1.12400        5.02800       -7.42400
C         -0.60000        4.27100       -8.42100
H         -1.57000        4.33300       -7.92600
C         -0.42000        5.51600       -9.30400
H          0.39300        5.33200      -10.00900
H         -1.32900        5.66700       -9.88900
C         -0.11200        6.78500       -8.52700
C          1.20900        7.27700       -8.47900
H          1.99200        6.78800       -9.04400
C          1.50900        8.41300       -7.70300
H          2.51300        8.80900       -7.66800
C          0.49000        9.06000       -6.97400
O          0.79100       10.14900       -6.22300
H          0.00700       10.58600       -5.88700
C         -0.83200        8.56600       -7.02100
H         -1.61400        9.05700       -6.46200
C         -1.12900        7.42900       -7.79600
H         -2.14000        7.04300       -7.82800
C         -0.60600        2.99600       -9.28500
O         -1.63200        2.62700       -9.84500
N          0.53900        2.31700       -9.36600
H          1.34100        2.73200       -8.91000
C          0.73700        1.01600      -10.00800
H          0.22100        1.04100      -10.96900
C          2.24500        0.82400      -10.28900
H          2.34300       -0.04600      -10.94000
H          2.62000        1.68200      -10.85100
C          3.15500        0.58300       -9.06300
H          2.71800       -0.17600       -8.41400
H          4.10400        0.18400       -9.42200
C          3.48200        1.82300       -8.22500
O          3.09600        2.96400       -8.45500
O          4.24600        1.57300       -7.14400
H          4.39100        2.42500       -6.68800
C          0.14400       -0.17800       -9.22600
O          0.24900       -1.31400       -9.67200
N         -0.44000        0.01900       -8.05000
H         -0.51100        0.94800       -7.65700
H         -0.82100       -0.77700       -7.56700
