63
0 1
H          6.49500        9.71900       -6.93400
C          7.57800        9.80000       -7.00600
H          7.85500       10.71300       -7.52800
H          7.96800        8.93500       -7.54100
C          8.16000        9.81400       -5.61300
O          8.86400        8.88700       -5.23400
N          7.85800       10.86900       -4.85500
H          7.25800       11.57700       -5.25200
C          8.22300       11.05000       -3.44400
H          8.30500       10.06700       -2.98700
C          9.57600       11.78400       -3.31500
H          9.52600       12.69300       -3.91700
H          9.70200       12.09100       -2.27600
C         10.83200       10.99100       -3.72400
H         10.74600       10.66300       -4.75900
C         12.05800       11.90000       -3.62000
H         12.19000       12.24000       -2.59200
H         12.94600       11.35400       -3.93600
H         11.93100       12.76300       -4.27300
C         11.07300        9.78000       -2.81700
H         11.13500       10.09100       -1.77500
H         10.26700        9.05700       -2.93700
H         12.00300        9.28900       -3.10400
C          7.13000       11.86000       -2.71300
O          6.52800       12.73700       -3.33500
N          6.88100       11.62000       -1.40700
C          5.95400       12.42300       -0.62100
H          5.01800       12.58900       -1.15500
H          6.42000       13.38100       -0.38500
C          5.70200       11.63900        0.66500
H          4.88000       10.93800        0.51600
H          5.49700       12.30100        1.50800
C          7.01300       10.87400        0.84800
H          6.88200        9.98700        1.46900
H          7.76000       11.53600        1.29000
C          7.42600       10.52700       -0.58700
H          8.51400       10.50500       -0.65000
C          6.88900        9.14100       -0.99300
O          7.53000        8.13000       -0.73000
N          5.74900        9.10000       -1.68600
H          5.27500        9.97800       -1.84700
C          5.19000        7.93900       -2.39100
H          5.26200        7.06500       -1.74300
C          3.69100        8.20500       -2.66600
H          3.36000        7.64700       -3.54300
H          3.12900        7.80700       -1.82000
C          3.32300        9.67500       -2.82600
C          3.73500       10.38900       -3.96800
H          4.23700        9.87600       -4.77700
C          3.52300       11.77800       -4.05000
H          3.86600       12.32700       -4.91400
C          2.88100       12.45600       -2.99200
O          2.71500       13.80200       -3.04200
H          3.25200       14.19500       -3.73200
C          2.44200       11.73800       -1.86200
H          1.94800       12.26800       -1.06100
C          2.66900       10.35100       -1.77600
H          2.35300        9.81000       -0.89500
C          6.01200        7.61700       -3.65900
O          5.57100        7.79700       -4.78900
N          7.25500        7.19300       -3.48500
H          7.85400        7.12400       -4.29500
H          7.62900        7.11200       -2.54900
