71
0 1
H         12.51600       12.24600      -12.15500
C         11.76200       11.68300      -12.70500
H         12.16100       11.38800      -13.67400
H         10.87300       12.29600      -12.83800
C         11.40300       10.44700      -11.91400
O         11.94400       10.22500      -10.83900
N         10.49000        9.64000      -12.45400
H         10.10900        9.88200      -13.35700
C         10.01000        8.39700      -11.84400
H         10.82100        7.97300      -11.25000
C          8.83200        8.73600      -10.90500
H          9.17000        9.48100      -10.18300
H          8.04200        9.19100      -11.50500
C          8.22800        7.55100      -10.12800
H          7.87300        6.79500      -10.82700
C          9.23000        6.91100       -9.16700
H          8.75200        6.09800       -8.62000
H         10.07400        6.50100       -9.71300
H          9.59800        7.65200       -8.45800
C          7.04100        8.04000       -9.29800
H          6.56700        7.19500       -8.79900
H          7.37700        8.75700       -8.54900
H          6.31000        8.52200       -9.94600
C          9.63500        7.38100      -12.93600
O          9.13300        7.75900      -13.99400
N          9.87100        6.09200      -12.68400
H         10.25200        5.85200      -11.78000
C          9.67200        4.97400      -13.62200
H         10.02900        5.28900      -14.60400
C         10.55700        3.79700      -13.17200
H         10.33900        2.91800      -13.78000
H         11.59600        4.06500      -13.37100
C         10.45700        3.43600      -11.72000
C          9.56700        2.57200      -11.18300
H          8.83000        2.01600      -11.75500
N          9.71800        2.54200       -9.81000
H          9.15300        1.96600       -9.20300
C         10.70400        3.40700       -9.38900
C         11.19800        3.75600       -8.12400
H         10.78900        3.30300       -7.23300
C         12.23000        4.70600       -8.03200
H         12.62300        4.98900       -7.06500
C         12.75600        5.28600       -9.20000
H         13.55300        6.01400       -9.12300
C         12.25400        4.92700      -10.46700
H         12.67500        5.37600      -11.35400
C         11.21100        3.98300      -10.59300
C          8.18900        4.58300      -13.82700
O          7.80700        3.42000      -13.70600
N          7.33900        5.56000      -14.15700
H          7.73500        6.48800      -14.26300
C          5.90400        5.40000      -14.44100
H          5.49400        4.69100      -13.72100
C          5.19000        6.75500      -14.24200
H          5.59900        7.46700      -14.96200
H          4.13100        6.62500      -14.47200
C          5.30500        7.36000      -12.83100
H          6.35300        7.52500      -12.58700
C          4.59100        8.71100      -12.79100
H          3.53300        8.58200      -13.01800
H          4.69600        9.15800      -11.80400
H          5.03600        9.38100      -13.52700
C          4.68100        6.45600      -11.76300
H          5.26400        5.54200      -11.66200
H          4.67400        6.96500      -10.80000
H          3.65600        6.20600      -12.03800
C          5.62800        4.78100      -15.83200
O          4.85200        5.29800      -16.62700
N          6.27800        3.67600      -16.16700
H          6.10700        3.27300      -17.07300
H          6.89900        3.24600      -15.49400
