58
0 1
H          7.53500        2.10000       -2.17900
C          6.48500        2.01700       -2.45900
H          5.93800        2.87900       -2.08300
H          6.07000        1.10100       -2.04400
C          6.38400        1.97600       -3.96600
O          7.39500        2.03600       -4.65100
N          5.15600        1.88200       -4.47600
H          4.38100        1.84700       -3.83300
C          4.85100        1.79400       -5.91100
H          5.77300        1.88800       -6.48400
C          4.25300        0.40400       -6.22700
H          3.31700        0.30400       -5.67500
H          4.01300        0.36400       -7.29100
C          5.14900       -0.80200       -5.88200
H          5.43400       -0.76100       -4.83100
C          4.37100       -2.09900       -6.11000
H          4.07300       -2.18200       -7.15500
H          4.99400       -2.95400       -5.84500
H          3.48100       -2.11000       -5.48100
C          6.41600       -0.86100       -6.73800
H          7.01300       -1.72300       -6.44000
H          6.15200       -0.96100       -7.78900
H          7.01700        0.03400       -6.58100
C          3.93900        2.96000       -6.35300
O          2.75900        2.73900       -6.63000
N          4.43900        4.21300       -6.40400
C          5.82800        4.60000       -6.19300
H          6.52200        3.92400       -6.69500
H          6.04000        4.62900       -5.12400
C          5.95500        6.00300       -6.78000
H          6.14500        5.93800       -7.85300
H          6.73500        6.58100       -6.28300
C          4.56500        6.59000       -6.53400
H          4.34600        7.41200       -7.21800
H          4.49400        6.93200       -5.50000
C          3.62900        5.39300       -6.73900
H          2.79200        5.47100       -6.04500
C          3.05000        5.37100       -8.16500
O          2.09300        6.08600       -8.44500
N          3.59500        4.54300       -9.06100
H          4.40300        4.00700       -8.76900
C          3.06100        4.28700      -10.40200
H          2.73200        5.24600      -10.80600
C          4.19100        3.77000      -11.32100
H          3.84200        3.89000      -12.34800
H          5.06900        4.40900      -11.21100
C          4.61400        2.29200      -11.16200
H          3.73800        1.64500      -11.15200
H          5.19700        2.01900      -12.04200
C          5.47600        1.97800       -9.93900
O          5.73300        2.74000       -9.01700
O          5.97600        0.72900       -9.91000
H          6.51700        0.67900       -9.12100
C          1.82000        3.36600      -10.42600
O          1.31300        3.04600      -11.49400
N          1.33300        2.87900       -9.29000
H          1.75800        3.11400       -8.40400
H          0.52000        2.28800       -9.33500
