63
0 1
H         12.62400        6.78200       10.13200
C         11.63800        7.24300       10.08800
H         11.73700        8.31900       10.21200
H         11.01000        6.83300       10.87600
C         11.01300        6.94500        8.74600
O         11.58500        6.20100        7.95800
N          9.83800        7.52700        8.50000
H          9.45100        8.09900        9.23200
C          9.03800        7.37600        7.27500
H          8.04200        7.76300        7.49000
C          9.61100        8.22200        6.10900
H         10.65800        7.95600        5.96200
H          9.08000        7.93600        5.20000
C          9.52400        9.76000        6.20300
H          9.89300       10.15300        5.25500
C          8.08700       10.25500        6.37400
H          8.06500       11.34100        6.28500
H          7.45500        9.83000        5.59400
H          7.69500        9.97500        7.35100
C         10.38700       10.37400        7.30700
H          9.96700       10.16300        8.28800
H         11.39900        9.97500        7.24500
H         10.42800       11.45500        7.17200
C          8.79600        5.89300        6.93100
O          7.95200        5.26000        7.55800
N          9.54900        5.31800        5.98800
H         10.26000        5.88800        5.54100
C          9.48900        3.89100        5.63700
H          8.45400        3.66000        5.37900
C         10.35300        3.61700        4.38700
H         10.09400        2.62000        4.02800
H         10.08100        4.32000        3.59800
C         11.88400        3.64500        4.59200
H         12.16500        2.99600        5.42000
H         12.35700        3.24100        3.69700
C         12.47100        5.03700        4.82300
O         11.90200        6.09600        4.59600
O         13.72800        5.04800        5.30200
H         13.93800        5.97100        5.44700
C          9.87200        2.94800        6.79600
O          9.54800        1.76600        6.74600
N         10.55700        3.45400        7.82800
H         10.82700        4.43100        7.78300
C         10.89000        2.72100        9.05600
H         11.01500        1.66600        8.80700
C         12.22900        3.24300        9.61900
H         12.07500        4.26200        9.97400
H         12.50100        2.63300       10.48100
C         13.41000        3.24300        8.62900
H         13.17300        3.87600        7.77500
C         14.65200        3.81900        9.30900
H         14.93200        3.20300       10.16400
H         15.47800        3.84900        8.59900
H         14.44600        4.83400        9.64600
C         13.74800        1.84000        8.12000
H         12.91000        1.43700        7.55400
H         14.61500        1.88800        7.46200
H         13.96700        1.18100        8.96000
C          9.77300        2.77000       10.12200
O          9.94500        2.27200       11.22700
N          8.62900        3.38700        9.84700
H          7.91200        3.39400       10.55000
H          8.47900        3.81000        8.94100
