68
0 1
H         10.43600       13.86000        8.53300
C         10.20200       14.31200        7.57000
H         10.69300       13.74900        6.77700
H         10.54500       15.34400        7.54700
C          8.71000       14.26900        7.34800
O          8.24000       13.63500        6.41300
N          7.95300       14.97900        8.18400
H          8.40600       15.47100        8.93700
C          6.48000       14.98600        8.14000
H          6.15400       13.95000        8.25000
C          5.92600       15.77000        9.34900
H          4.89100       15.44900        9.48200
H          6.46800       15.47300       10.24900
C          5.91300       17.31200        9.24300
H          5.34000       17.61400        8.36800
C          5.23100       17.89600       10.48100
H          5.78600       17.63100       11.38100
H          5.17700       18.98100       10.39600
H          4.21500       17.50700       10.55700
C          7.31300       17.92700        9.15100
H          7.23300       19.01500        9.17300
H          7.92400       17.60100        9.99300
H          7.78600       17.64800        8.21300
C          5.87300       15.47600        6.80900
O          4.70600       15.21100        6.53900
N          6.65200       16.16000        5.96500
H          7.62100       16.27800        6.20900
C          6.23000       16.59900        4.63100
H          5.22700       17.02000        4.71500
C          7.16300       17.72000        4.14800
H          6.77500       18.10900        3.20500
H          7.12400       18.54000        4.86700
C          8.61000       17.31100        3.94500
C          9.01600       16.77400        2.70800
H          8.29500       16.64900        1.90900
C         10.35600       16.39200        2.51000
H         10.67400       15.97300        1.56700
C         11.29400       16.54300        3.55100
O         12.58400       16.16600        3.35400
H         13.14800       16.39100        4.09400
C         10.89100       17.08900        4.79000
H         11.61200       17.21800        5.58100
C          9.55000       17.47600        4.98300
H          9.24600       17.91700        5.92100
C          6.12800       15.45200        3.60500
O          5.56900       15.66300        2.53300
N          6.62000       14.24400        3.92100
H          7.12100       14.13500        4.79500
C          6.32900       13.02300        3.15500
H          6.22800       13.28800        2.10200
C          7.48500       12.00200        3.28500
H          7.60900       11.73400        4.33500
H          7.16800       11.09500        2.76800
C          8.86500       12.36700        2.69200
H          9.39600       11.42800        2.53400
C          8.77900       13.06700        1.33500
H          8.16800       12.47300        0.65600
H          8.33700       14.05600        1.44900
H          9.77800       13.17100        0.91300
C          9.73600       13.19700        3.63400
H          9.87900       12.65200        4.56500
H         10.71000       13.37200        3.17700
H          9.26500       14.15300        3.84500
C          4.97700       12.38000        3.54200
O          4.58400       11.36900        2.97200
N          4.23900       12.92000        4.50600
H          4.54500       13.75600        4.98300
H          3.36000       12.48700        4.73000
