69
0 1
H          2.34100       -2.95600       -3.78500
C          2.48900       -2.59900       -4.80300
H          1.80600       -1.77600       -5.00500
H          2.30300       -3.41600       -5.49900
C          3.91300       -2.12300       -4.95700
O          4.67000       -2.11500       -3.99500
N          4.27500       -1.69700       -6.16800
H          3.58800       -1.73300       -6.90300
C          5.65600       -1.33000       -6.52700
H          6.29900       -2.19100       -6.33500
C          5.72800       -0.98800       -8.02800
H          5.10200       -0.11300       -8.21300
H          6.75700       -0.71100       -8.26600
C          5.29700       -2.11400       -8.98900
H          4.26100       -2.38600       -8.78600
C          5.38300       -1.61600      -10.43200
H          5.04300       -2.39700      -11.11300
H          4.74700       -0.74100      -10.56100
H          6.41200       -1.35200      -10.67700
C          6.17000       -3.36300       -8.86000
H          7.21800       -3.10500       -9.01200
H          6.04700       -3.80900       -7.87400
H          5.87200       -4.10000       -9.60600
C          6.24700       -0.17800       -5.68900
O          7.46300       -0.08600       -5.56700
N          5.40400        0.65700       -5.07000
H          4.41800        0.49200       -5.18300
C          5.81700        1.71800       -4.13900
H          6.53300        2.36500       -4.64900
C          4.57200        2.55500       -3.79000
H          4.16000        2.96100       -4.71500
H          3.81900        1.91300       -3.33500
C          4.85500        3.72400       -2.84000
H          5.12200        3.32800       -1.86000
H          5.70400        4.29100       -3.22500
S          3.45600        4.85700       -2.63200
C          4.20500        6.03100       -1.47300
H          5.08000        6.49100       -1.93200
H          3.48000        6.80600       -1.22300
H          4.50500        5.50800       -0.56500
C          6.52800        1.18800       -2.87500
O          7.24400        1.94100       -2.21900
N          6.36500       -0.10100       -2.55300
H          5.75000       -0.66400       -3.12800
C          6.95700       -0.75600       -1.37900
H          7.65200       -0.05900       -0.91000
C          5.85600       -1.05300       -0.34600
H          5.28200       -1.91500       -0.69200
H          6.32300       -1.32700        0.60100
C          4.89600        0.07700       -0.10600
C          5.12200        1.14200        0.69500
H          6.01700        1.28500        1.28800
N          4.07000        2.03200        0.59300
H          4.03300        2.90800        1.09300
C          3.11900        1.59400       -0.30400
C          1.91600        2.14200       -0.77100
H          1.58100        3.10500       -0.41500
C          1.15900        1.42600       -1.71400
H          0.22700        1.83500       -2.08200
C          1.61000        0.17500       -2.17200
H          1.01700       -0.37900       -2.88500
C          2.82500       -0.36100       -1.70000
H          3.16600       -1.32400       -2.04700
C          3.61300        0.33500       -0.75800
C          7.79700       -1.99400       -1.74300
O          8.10900       -2.82100       -0.89400
N          8.17900       -2.15600       -3.00500
H          7.94300       -1.45900       -3.69600
H          8.72700       -2.96700       -3.23800
