56
0 1
H          2.53800        4.45900       -0.97200
C          2.33000        5.13300       -0.14300
H          1.98500        4.56000        0.71700
H          1.56800        5.85400       -0.43200
C          3.59500        5.86700        0.23300
O          4.05700        5.75700        1.36100
N          4.15000        6.61700       -0.71600
H          3.68900        6.67700       -1.61200
C          5.37500        7.40900       -0.55600
H          5.39400        7.75500        0.47700
C          6.61900        6.51600       -0.77400
H          7.46700        7.03000       -0.32100
H          6.48700        5.58500       -0.21900
C          7.01000        6.18300       -2.23100
H          7.18100        7.10500       -2.78200
C          8.31700        5.38800       -2.22600
H          9.09900        5.96900       -1.73700
H          8.18300        4.44500       -1.69700
H          8.62900        5.18700       -3.25100
C          5.96400        5.35100       -2.97700
H          5.71100        4.46200       -2.39900
H          5.07100        5.95000       -3.14700
H          6.35600        5.05300       -3.94900
C          5.36600        8.64800       -1.47800
O          4.63800        8.64500       -2.47600
N          6.15700        9.70200       -1.18800
C          6.94900        9.89800        0.01700
H          7.90900        9.39100       -0.09300
H          6.43400        9.54700        0.91100
C          7.16800       11.40600        0.11100
H          8.07900       11.65000        0.65900
H          6.30000       11.87600        0.57500
C          7.25800       11.82000       -1.35600
H          8.27100       11.63700       -1.71800
H          6.98700       12.86700       -1.49700
C          6.26800       10.87900       -2.05300
H          5.29000       11.35500       -2.08300
C          6.74200       10.52600       -3.47900
O          7.57800        9.63500       -3.62800
N          6.27100       11.22700       -4.53100
C          6.70700       10.96600       -5.89600
H          6.55600        9.91900       -6.16400
H          7.76200       11.22600       -5.99400
C          5.86500       11.87200       -6.79300
H          4.94100       11.36200       -7.07100
H          6.41500       12.18700       -7.68000
C          5.55100       13.04700       -5.87000
H          4.66900       13.59800       -6.20100
H          6.41400       13.71400       -5.82400
C          5.35300       12.37400       -4.50600
H          5.64900       13.07400       -3.72600
C          3.86900       12.01800       -4.28000
O          3.03700       12.90900       -4.18100
N          3.49200       10.75000       -4.18500
H          2.51800       10.55500       -4.02400
H          4.17200       10.00300       -4.18400
