59
0 1
H         13.75900       12.08500        0.55500
C         13.33600       11.59200       -0.31800
H         13.68400       10.56100       -0.36200
H         13.63500       12.11700       -1.22400
C         11.82900       11.59700       -0.21700
O         11.20900       10.54000       -0.20300
N         11.24200       12.78900       -0.13900
H         11.82100       13.61000       -0.20100
C          9.78800       12.97500       -0.15700
H          9.32800       12.21500        0.47800
C          9.40800       14.36600        0.39100
H         10.04600       15.12500       -0.06400
H          8.38500       14.57100        0.07200
C          9.44200       14.50400        1.92700
H          8.83700       13.71100        2.36800
C         10.84900       14.44200        2.52700
H         10.80300       14.65600        3.59500
H         11.26100       13.44200        2.40600
H         11.49700       15.17200        2.04300
C          8.82900       15.84900        2.32400
H          9.41500       16.66800        1.90600
H          7.80600       15.91300        1.95400
H          8.80800       15.93900        3.41000
C          9.24000       12.78100       -1.58200
O          9.82900       13.25300       -2.55300
N          8.08700       12.12300       -1.69900
H          7.62900       11.78900       -0.86200
C          7.40200       11.83200       -2.96500
H          7.55500       12.67500       -3.63800
C          8.04000       10.57900       -3.59500
H          7.64000       10.42800       -4.59600
H          9.11400       10.73900       -3.70200
C          7.81600        9.31500       -2.80700
N          6.67100        8.52100       -2.87300
C          6.86300        7.53200       -1.98700
H          6.15300        6.73900       -1.79100
N          8.05200        7.67000       -1.37600
H          8.42200        7.06100       -0.66000
C          8.66800        8.79200       -1.88000
H          9.62800        9.20100       -1.59200
C          5.88300       11.66900       -2.72600
O          5.47000       11.60800       -1.56600
N          5.03100       11.61700       -3.77400
C          5.36900       11.84700       -5.17300
H          5.57200       10.89100       -5.65800
H          6.21700       12.51900       -5.29400
C          4.12500       12.48000       -5.78900
H          4.07200       12.30800       -6.86500
H          4.10100       13.54700       -5.56400
C          3.00400       11.76600       -5.04100
H          2.83100       10.79100       -5.50100
H          2.08400       12.35100       -5.03700
C          3.56700       11.58800       -3.62400
H          3.27700       12.45100       -3.02400
C          2.95900       10.33700       -2.95900
O          1.75100       10.27800       -2.76400
N          3.72800        9.30800       -2.63100
H          3.29400        8.51300       -2.19600
H          4.73000        9.34900       -2.76600
