64
0 1
H         -1.54500       -2.60400        4.35000
C         -1.06900       -2.74900        3.38200
H         -1.10500       -3.80500        3.11600
H         -0.03300       -2.41900        3.42300
C         -1.81200       -1.95400        2.33600
O         -2.30400       -2.52000        1.36800
N         -1.86100       -0.63200        2.50800
H         -1.43000       -0.25200        3.33600
C         -2.64100        0.29500        1.66500
H         -3.69100       -0.00200        1.70500
C         -2.52000        1.72900        2.22500
H         -1.47500        1.95100        2.44400
H         -2.83700        2.41500        1.43600
C         -3.39100        2.03800        3.46000
H         -4.42900        1.79400        3.23300
C         -2.97300        1.27900        4.72300
H         -1.91300        1.43400        4.92500
H         -3.55200        1.64000        5.57400
H         -3.18700        0.21800        4.61000
C         -3.30700        3.53300        3.77200
H         -3.63900        4.11000        2.90800
H         -3.95700        3.77400        4.61300
H         -2.28200        3.81200        4.01700
C         -2.25400        0.26900        0.17100
O         -3.04300        0.68900       -0.66900
N         -1.08200       -0.27700       -0.17200
H         -0.49800       -0.61600        0.57400
C         -0.65700       -0.55600       -1.55200
H         -0.62600        0.38500       -2.10300
C          0.76400       -1.14900       -1.51400
H          1.16700       -1.17600       -2.52700
H          1.40300       -0.49900       -0.91400
C          0.80100       -2.57100       -0.93300
H          0.20900       -2.60500       -0.01900
H          0.35100       -3.25400       -1.65400
S          2.45900       -3.17600       -0.53700
C          2.04100       -4.87800       -0.07500
H          2.94800       -5.41000        0.21000
H          1.34600       -4.87100        0.76500
H          1.57900       -5.38400       -0.92300
C         -1.60700       -1.50000       -2.31700
O         -1.58100       -1.52200       -3.54300
N         -2.43000       -2.28200       -1.60700
H         -2.38500       -2.22900       -0.59600
C         -3.43500       -3.18300       -2.18100
H         -3.06400       -3.55800       -3.13600
C         -3.63200       -4.38300       -1.23000
H         -4.07200       -4.01400       -0.30200
H         -4.34800       -5.07000       -1.68400
C         -2.35000       -5.16900       -0.88500
H         -1.62700       -4.51100       -0.40400
C         -2.68300       -6.29300        0.09600
H         -3.12000       -5.86800        1.00000
H         -3.39400       -6.98600       -0.35600
H         -1.77500       -6.83100        0.36500
C         -1.69200       -5.79100       -2.11900
H         -2.40700       -6.42700       -2.64200
H         -1.35000       -5.00600       -2.79300
H         -0.83100       -6.38700       -1.81900
C         -4.77600       -2.48500       -2.49800
O         -5.71700       -3.12500       -2.95200
N         -4.91300       -1.18600       -2.25500
H         -5.79100       -0.75100       -2.47700
H         -4.14300       -0.65200       -1.87900
