71
0 1
H         14.08900        7.08400       -3.78500
C         13.96000        7.31900       -2.73000
H         14.61800        8.14100       -2.45100
H         14.20000        6.44200       -2.13100
C         12.52800        7.72100       -2.47200
O         11.87100        7.12500       -1.62300
N         12.05600        8.72200       -3.21900
H         12.71300        9.14900       -3.85200
C         10.71700        9.33400       -3.15400
H         10.76200       10.22700       -3.77800
C          9.66500        8.40000       -3.79500
H          9.95800        8.20500       -4.82700
H          9.67400        7.44700       -3.26400
C          8.21900        8.94000       -3.78300
H          7.89800        9.11000       -2.75700
C          8.07700       10.24800       -4.56400
H          7.03000       10.55100       -4.57700
H          8.64800       11.03800       -4.07700
H          8.42700       10.11800       -5.58700
C          7.28400        7.90500       -4.40800
H          7.34700        6.97200       -3.84900
H          6.25700        8.26800       -4.35800
H          7.55600        7.72800       -5.44800
C         10.34300        9.85100       -1.75400
O         10.47000       11.04200       -1.48900
N          9.90800        8.96300       -0.86000
H          9.88400        7.99400       -1.14500
C          9.66000        9.26600        0.55300
H          9.09000       10.19300        0.61800
C          8.83200        8.13100        1.17400
H          9.50400        7.30700        1.41800
H          8.39900        8.48800        2.10900
C          7.73100        7.58900        0.30700
C          7.62800        6.30800       -0.11700
H          8.32500        5.51700        0.13400
N          6.51000        6.17000       -0.91500
H          6.22900        5.29600       -1.33400
C          5.83800        7.36500       -1.05900
C          4.68800        7.73400       -1.77100
H          4.14500        7.00200       -2.35000
C          4.25700        9.07000       -1.72600
H          3.37400        9.37600       -2.27000
C          4.97700       10.01300       -0.97000
H          4.64400       11.04100       -0.93800
C          6.12900        9.62900       -0.25400
H          6.67400       10.36500        0.31800
C          6.59000        8.29400       -0.27800
C         10.97600        9.48000        1.31600
O         11.04600       10.30900        2.21900
N         12.04100        8.77900        0.90600
H         11.90100        8.12400        0.14500
C         13.42200        9.09400        1.26800
H         13.43100        9.44900        2.29900
C         14.26000        7.80100        1.19300
H         13.78700        7.04600        1.82300
H         14.23800        7.43600        0.16700
C         15.73300        7.94500        1.62700
H         16.23700        8.68600        1.00900
C         15.86900        8.35700        3.09500
H         15.33600        7.65200        3.73400
H         16.92200        8.37100        3.37600
H         15.46600        9.35800        3.24200
C         16.44900        6.60700        1.44300
H         15.98500        5.84200        2.06600
H         16.39300        6.30400        0.39700
H         17.49800        6.71000        1.71900
C         13.93200       10.24400        0.37600
O         14.70900       10.05100       -0.55300
N         13.43800       11.45100        0.60700
H         13.70300       12.20600       -0.00100
H         12.72700       11.56600        1.31600
