60
0 1
H          6.74900       11.30600       -0.03700
C          5.90900       10.62300       -0.14500
H          5.44100       10.76300       -1.11800
H          5.17700       10.81100        0.63900
C          6.40000        9.20000       -0.02800
O          5.95300        8.46600        0.84400
N          7.33800        8.81500       -0.89500
H          7.67000        9.50100       -1.55300
C          7.82900        7.43400       -1.04100
H          6.98900        6.81000       -1.35300
C          8.87300        7.43100       -2.17700
H          8.37600        7.82800       -3.06400
H          9.68700        8.11400       -1.92900
C          9.45900        6.04300       -2.52400
H          8.74000        5.26400       -2.27100
C          9.74300        5.95400       -4.02500
H         10.45200        6.72600       -4.32300
H         10.15700        4.97400       -4.26300
H          8.81500        6.07800       -4.58400
C         10.78400        5.77600       -1.80400
H         10.64300        5.79100       -0.72500
H         11.15500        4.78800       -2.07900
H         11.52600        6.52500       -2.08000
C          8.36500        6.81100        0.26500
O          8.25600        5.60300        0.45400
N          8.87800        7.62100        1.19600
H          8.88100        8.61700        1.00900
C          9.33800        7.16600        2.51600
H         10.04500        6.35200        2.34500
C         10.10700        8.30100        3.22700
H         10.73000        7.83800        3.99400
H         10.78100        8.78300        2.51700
C          9.25000        9.37500        3.93100
H          8.59900        8.90400        4.66700
H          9.91600       10.04200        4.47800
C          8.40300       10.23800        2.99800
O          8.58700       10.38400        1.79500
O          7.38400       10.87600        3.60300
H          6.90600       11.35700        2.92700
C          8.22000        6.58400        3.40800
O          8.51800        6.00800        4.44800
N          6.94600        6.74200        3.03000
H          6.75600        7.24600        2.17000
C          5.79500        6.14300        3.71800
H          5.95600        6.20600        4.79500
C          4.52200        6.94000        3.37200
H          4.35300        6.87000        2.29600
H          3.66500        6.49000        3.87600
C          4.60300        8.42500        3.77700
H          4.54000        8.51000        4.86200
H          5.55400        8.84900        3.46500
C          3.50300        9.27600        3.14900
O          2.46200        8.86600        2.65800
O          3.72500       10.60500        3.17200
H          2.93100       10.97300        2.78200
C          5.60100        4.64800        3.38200
O          4.78800        3.97600        4.00400
N          6.31400        4.09500        2.40500
H          6.17500        3.11800        2.21100
H          6.98200        4.64400        1.88200
