66
0 1
H          3.51400       11.27700        2.84100
C          4.59700       11.19300        2.90200
H          4.89700       11.10500        3.94500
H          5.06400       12.07300        2.46200
C          5.04800        9.96200        2.15400
O          5.65000        9.07400        2.74500
N          4.76200        9.92500        0.85200
H          4.25900       10.71400        0.47600
C          5.09700        8.83100       -0.08100
H          5.80800        8.16100        0.40400
C          3.82500        8.02000       -0.41500
H          3.10700        8.69500       -0.88300
H          4.07900        7.25300       -1.14800
C          3.14300        7.32300        0.77900
H          2.92400        8.05200        1.55900
C          1.81900        6.70800        0.32300
H          1.32300        6.23400        1.16900
H          1.16600        7.48700       -0.07100
H          1.99900        5.96300       -0.45200
C          4.00300        6.20300        1.36600
H          4.24900        5.47100        0.59700
H          4.92300        6.61400        1.77800
H          3.46400        5.70800        2.17400
C          5.81500        9.34100       -1.35100
O          5.84400        8.67100       -2.38200
N          6.39000       10.54500       -1.28400
H          6.40300       10.98500       -0.37100
C          7.04200       11.32100       -2.35700
H          6.38300       11.32900       -3.22600
C          7.18300       12.76600       -1.84500
H          7.68900       13.38100       -2.59100
H          6.18600       13.18500       -1.70100
C          7.92100       12.85600       -0.53000
N          7.37400       12.55100        0.72100
C          8.38000       12.67800        1.59900
H          8.29000       12.51100        2.66500
N          9.51600       13.02300        0.96800
H         10.41500       13.16000        1.40900
C          9.24700       13.13300       -0.37800
H          9.94400       13.35000       -1.17800
C          8.38900       10.74400       -2.85300
O          9.30200       11.48100       -3.21500
N          8.51700        9.41900       -2.83400
H          7.70600        8.90500       -2.52000
C          9.72900        8.64200       -3.11300
H         10.29100        9.12500       -3.91300
C         10.60100        8.62400       -1.84300
H         11.44900        7.95400       -1.99200
H         11.01000        9.62400       -1.69300
C          9.85000        8.21200       -0.58800
C          9.66600        6.85000       -0.28300
H         10.10400        6.08900       -0.91600
C          8.89500        6.47800        0.83700
H          8.73500        5.43700        1.07500
C          8.30800        7.46800        1.65000
O          7.51700        7.10900        2.69300
H          6.86500        7.80400        2.88800
C          8.50800        8.83300        1.35300
H          8.06500        9.59000        1.98100
C          9.28000        9.20200        0.23800
H          9.42000       10.24700        0.00000
C          9.41200        7.20600       -3.58400
O         10.31500        6.43000       -3.87300
N          8.14700        6.80300       -3.67200
H          7.97300        5.86100       -3.97800
H          7.38700        7.42300       -3.43500
