64
0 1
H          9.70700        3.73200       -2.54600
C         10.31900        2.83300       -2.50300
H         11.35900        3.09300       -2.69500
H          9.98000        2.11400       -3.24600
C         10.21400        2.22000       -1.12800
O         11.22000        2.05100       -0.45300
N          8.99400        1.85600       -0.72700
H          8.22900        2.01800       -1.36200
C          8.67900        1.27900        0.59200
H          8.88600        2.03100        1.35400
C          7.16400        0.96900        0.59300
H          6.64700        1.90400        0.37300
H          6.94700        0.28700       -0.23000
C          6.50800        0.39600        1.86800
H          5.43200        0.51500        1.73400
C          6.74500       -1.10100        2.07900
H          6.54700       -1.64600        1.15600
H          7.76400       -1.29600        2.40500
H          6.06800       -1.46500        2.85200
C          6.88900        1.16600        3.13200
H          6.69400        2.22800        2.99100
H          6.29300        0.80600        3.97100
H          7.94300        1.01700        3.36500
C          9.55200        0.05300        0.92700
O          9.97400       -0.12300        2.06700
N          9.87900       -0.75500       -0.08300
H          9.46500       -0.56400       -0.98700
C         10.70700       -1.96200        0.01000
H         10.24500       -2.64500        0.72400
C         10.72800       -2.63500       -1.37200
H         11.31000       -2.01600       -2.05700
H         11.22900       -3.60000       -1.28800
C          9.36000       -2.84200       -1.98000
N          8.55400       -1.83700       -2.52500
C          7.43500       -2.44900       -2.93800
H          6.60400       -1.94900       -3.41800
N          7.49300       -3.76600       -2.67500
H          6.77400       -4.44100       -2.89600
C          8.70100       -4.03300       -2.06800
H          9.06800       -4.99100       -1.72600
C         12.14500       -1.72700        0.50100
O         12.80400       -2.69100        0.87800
N         12.63900       -0.48200        0.50600
H         12.04500        0.27400        0.18200
C         13.94900       -0.11800        1.06300
H         14.65100       -0.93400        0.88200
C         14.48600        1.14500        0.35500
H         13.70600        1.90500        0.32200
H         15.29500        1.54600        0.96800
C         15.06400        0.92600       -1.05800
H         15.85200        0.17400       -1.00400
C         14.04200        0.48500       -2.11000
H         13.19400        1.16900       -2.11300
H         14.50500        0.47500       -3.09600
H         13.70000       -0.52500       -1.89100
C         15.68900        2.23400       -1.55000
H         14.92300        3.00600       -1.62700
H         16.45800        2.56000       -0.84900
H         16.15100        2.08200       -2.52500
C         13.91300        0.07800        2.59500
O         14.95200        0.24500        3.22400
N         12.74700        0.07200        3.23200
H         12.74800        0.19400        4.23000
H         11.88600       -0.06000        2.71900
