62
0 1
H         10.67900       -7.68500        6.97000
C         10.61800       -7.02700        7.83400
H         11.61700       -6.74000        8.15700
H         10.10400       -7.53900        8.64700
C          9.83500       -5.78900        7.46500
O          8.80600       -5.51400        8.06600
N         10.32800       -5.05200        6.47100
H         11.14700       -5.39400        5.99200
C          9.71500       -3.83800        5.92100
H          8.63800       -3.86400        6.09700
C         10.31200       -2.57800        6.58700
H         11.39700       -2.62400        6.48500
H          9.97100       -1.69800        6.03900
C          9.96600       -2.36500        8.07200
H         10.26500       -3.23600        8.65400
C         10.74200       -1.15600        8.59800
H         11.81200       -1.32500        8.48100
H         10.45500       -0.25700        8.05300
H         10.52700       -1.01700        9.65800
C          8.47600       -2.09400        8.28400
H          8.15000       -1.25200        7.67200
H          7.89600       -2.97800        8.01800
H          8.28700       -1.87400        9.33400
C          9.93000       -3.77100        4.40300
O         10.87200       -4.35900        3.87500
N          9.10200       -2.98500        3.71400
H          8.36400       -2.51000        4.22700
C          9.21500       -2.68600        2.27800
H          9.27900       -3.63400        1.74200
C          7.93000       -1.96100        1.82100
H          7.85700       -2.05700        0.73700
H          7.06200       -2.46700        2.24800
C          7.85300       -0.45600        2.16000
H          8.60000        0.07900        1.57300
H          6.87800       -0.07700        1.85400
C          8.04400       -0.12900        3.64100
O          7.51200       -0.77800        4.52600
N          8.85200        0.84800        3.98000
H          8.92100        1.06600        4.95600
H          9.40700        1.32700        3.27300
C         10.46600       -1.86600        1.89600
O         10.76100       -1.70900        0.71500
N         11.17500       -1.30600        2.88400
H         10.88200       -1.50400        3.82700
C         12.29800       -0.37800        2.70800
H         12.52300        0.03600        3.69100
C         13.56900       -1.13300        2.25600
H         13.44800       -1.47000        1.22500
H         14.42000       -0.45200        2.29800
C         13.88200       -2.36000        3.12500
H         13.09200       -3.09800        2.98600
H         14.81100       -2.80600        2.76900
S         14.05300       -2.02200        4.90100
C         14.13200       -3.72500        5.51300
H         13.22600       -4.25900        5.22700
H         14.99900       -4.22900        5.08400
H         14.22000       -3.71700        6.60000
C         11.90300        0.84000        1.84500
O         10.93300        1.52600        2.16000
N         12.62900        1.16200        0.78200
H         13.39900        0.57900        0.50000
H         12.33900        1.95200        0.23100
