61
0 1
H          3.28400       11.99600       -6.34700
C          2.29300       11.89200       -5.90700
H          1.70200       11.19200       -6.49500
H          1.80100       12.86300       -5.88100
C          2.43200       11.36600       -4.49800
O          3.54500       11.12700       -4.04100
N          1.30000       11.17200       -3.82400
H          0.42600       11.32200       -4.30700
C          1.20300       10.65400       -2.45400
H          2.16000       10.20600       -2.19200
C          0.89000       11.80400       -1.47300
H         -0.04900       12.26300       -1.78600
H          0.72800       11.38300       -0.48000
C          1.95600       12.91000       -1.35500
H          2.17100       13.32600       -2.33900
C          1.42300       14.03600       -0.46800
H          0.50800       14.44400       -0.89900
H          1.21400       13.65900        0.53300
H          2.16200       14.83400       -0.40300
C          3.25400       12.39900       -0.73000
H          3.05600       11.92500        0.23200
H          3.72300       11.67800       -1.39600
H          3.94900       13.22600       -0.59000
C          0.11300        9.56400       -2.36100
O         -0.83100        9.57700       -3.14500
N          0.16600        8.62000       -1.41600
H         -0.57000        7.93200       -1.46200
C          1.22400        8.39400       -0.42000
H          1.95200        9.20400       -0.44000
C          0.64200        8.39500        1.00000
H          0.18000        9.36200        1.20500
H         -0.11800        7.61700        1.08700
C          1.72800        8.14800        2.01400
N          2.81300        8.99800        2.22300
C          3.66300        8.32600        3.01100
H          4.62500        8.70300        3.33600
N          3.17700        7.10500        3.29100
H          3.68400        6.37900        3.78000
C          1.95500        6.97300        2.66800
H          1.33900        6.08600        2.61800
C          2.00100        7.09700       -0.68800
O          1.42300        6.06000       -1.00600
N          3.31800        7.15300       -0.50200
H          3.70900        8.05200       -0.23800
C          4.25600        6.04000       -0.62500
H          3.98400        5.44900       -1.50000
C          5.67900        6.59800       -0.84800
H          5.93100        7.30300       -0.05300
H          6.37900        5.76400       -0.78500
C          5.88800        7.26600       -2.22400
H          6.95600        7.41500       -2.37700
H          5.53800        6.59000       -3.00500
C          5.20900        8.62600       -2.41300
O          4.72700        9.31000       -1.51900
O          5.15900        9.03900       -3.69500
H          4.65800        9.87800       -3.71900
C          4.16000        5.10500        0.59800
O          5.01100        5.09200        1.48200
N          3.09200        4.32400        0.68800
H          2.36000        4.41000       -0.00600
H          3.01100        3.70100        1.47300
