56
0 1
H         10.48000       11.73500        0.93600
C         11.21700       11.15400        0.38600
H         11.33100       10.17200        0.83900
H         12.17400       11.67500        0.39400
C         10.76000       10.99300       -1.04500
O         11.44800       11.42500       -1.96100
N          9.59400       10.37700       -1.23000
H          9.06900       10.09600       -0.41600
C          8.96100       10.13000       -2.53100
H          9.36800       10.83400       -3.25600
C          9.25400        8.68600       -2.99500
H          8.94700        8.00800       -2.19800
H          8.63100        8.46100       -3.86200
C         10.71900        8.38400       -3.36400
H         11.37100        8.62800       -2.52700
C         10.86900        6.89200       -3.66300
H         10.58000        6.31100       -2.78800
H         10.23700        6.61100       -4.50600
H         11.90900        6.66700       -3.90100
C         11.17500        9.15800       -4.60400
H         10.51400        8.95000       -5.44500
H         11.17800       10.22700       -4.39500
H         12.19200        8.86500       -4.86300
C          7.44000       10.36200       -2.44500
O          6.85900       10.14900       -1.37600
N          6.77000       10.76900       -3.54200
C          7.33100       11.05500       -4.85600
H          8.07100       10.31200       -5.15400
H          7.78000       12.05000       -4.84700
C          6.15100       11.02900       -5.82500
H          5.98400       10.00800       -6.17300
H          6.30500       11.70200       -6.66900
C          4.98000       11.47400       -4.94800
H          4.02400       11.12400       -5.34100
H          4.98200       12.56200       -4.86600
C          5.31000       10.85800       -3.58500
H          4.97500       11.53200       -2.79900
C          4.65800        9.46900       -3.40700
O          5.23500        8.47200       -3.84200
N          3.45100        9.37400       -2.81200
C          2.76000        8.10100       -2.65200
H          3.38800        7.37400       -2.13600
H          2.48000        7.71800       -3.63500
C          1.50400        8.39800       -1.83500
H          1.72900        8.31900       -0.77000
H          0.68000        7.73700       -2.10500
C          1.21200        9.85200       -2.19700
H          0.59400       10.34100       -1.44200
H          0.71800        9.89200       -3.16900
C          2.61200       10.46900       -2.30900
H          2.57800       11.28100       -3.03600
C          3.06000       11.06600       -0.95800
O          2.45000       12.01100       -0.47800
N          4.10700       10.56200       -0.31900
H          4.38200       10.98800        0.55100
H          4.66900        9.83300       -0.73300
