59
0 1
H          7.81700        4.68800        4.68500
C          8.25300        5.00500        3.74000
H          9.33100        5.11700        3.85300
H          7.81800        5.95200        3.42800
C          7.97900        3.95800        2.68700
O          8.90800        3.39600        2.12400
N          6.69800        3.70500        2.42100
H          5.99700        4.25600        2.89400
C          6.20700        2.75600        1.41500
H          6.98000        2.60100        0.66200
C          5.86000        1.40300        2.07400
H          5.14500        1.59400        2.87600
H          5.35900        0.77400        1.33700
C          7.04600        0.60800        2.65300
H          7.59600        1.22300        3.36400
C          6.51800       -0.61900        3.40000
H          5.96900       -1.26800        2.71800
H          7.35200       -1.17300        3.83100
H          5.85800       -0.30200        4.20700
C          7.99900        0.11500        1.56200
H          8.46500        0.96500        1.06400
H          8.79200       -0.48300        2.01200
H          7.46200       -0.48900        0.83100
C          4.97500        3.32600        0.69900
O          4.24000        4.13500        1.26500
N          4.72900        2.87500       -0.53300
H          5.35400        2.19200       -0.92800
C          3.52700        3.22500       -1.29500
H          3.45900        4.31100       -1.33300
C          3.69100        2.71100       -2.74000
H          4.51000        3.25400       -3.21500
H          3.96500        1.65500       -2.71000
C          2.43100        2.84300       -3.61400
H          2.65900        2.47600       -4.61500
H          1.64000        2.21100       -3.21200
C          1.92700        4.27800       -3.74400
O          2.67900        5.21600       -3.93400
N          0.64200        4.51500       -3.62400
H          0.00800        3.77600       -3.32600
H          0.35000        5.46700       -3.73700
C          2.26400        2.63800       -0.62600
O          2.18400        1.41600       -0.48100
N          1.25100        3.44800       -0.25500
C          1.24300        4.90600       -0.24000
H          1.61000        5.33100       -1.17300
H          1.85000        5.26000        0.59500
C         -0.21400        5.31100       -0.02700
H         -0.72300        5.37300       -0.99100
H         -0.29600        6.25600        0.51100
C         -0.77900        4.14400        0.78200
H         -1.86000        4.05600        0.66500
H         -0.52000        4.27400        1.83400
C         -0.03100        2.93000        0.22100
H          0.14100        2.21400        1.02500
C         -0.81500        2.23300       -0.90400
O         -0.82800        2.67000       -2.05300
N         -1.52000        1.15600       -0.58700
H         -1.49200        0.79000        0.34900
H         -2.03400        0.69200       -1.31800
