62
0 1
H         10.13600       10.43600       -0.74400
C          9.21400        9.94700       -1.05200
H          9.35800        9.48200       -2.02600
H          8.40800       10.67600       -1.11100
C          8.85400        8.87800       -0.04800
O          8.76000        7.70800       -0.39800
N          8.64100        9.28000        1.20500
H          8.72100       10.26500        1.40200
C          8.29200        8.38700        2.31900
H          8.90900        7.49100        2.24200
C          8.61600        9.07100        3.66400
H          7.99000        9.96000        3.76100
H          8.34400        8.38500        4.46700
C         10.08600        9.48200        3.87000
H         10.37700       10.19500        3.09800
C         10.23600       10.16000        5.23100
H         11.26800       10.48500        5.37100
H          9.58600       11.03300        5.28400
H          9.96900        9.46500        6.02900
C         11.04000        8.28700        3.82500
H         10.73700        7.53800        4.55700
H         11.04200        7.84400        2.83000
H         12.05400        8.61700        4.05100
C          6.83000        7.89900        2.24000
O          5.99000        8.25400        3.06700
N          6.51900        7.07700        1.23400
H          7.25700        6.88100        0.56300
C          5.20500        6.45800        1.00600
H          4.44700        7.22400        1.17600
C          5.10600        6.03500       -0.47200
H          5.43700        6.86900       -1.09200
H          5.76900        5.18900       -0.65900
C          3.67600        5.66300       -0.88800
H          3.34600        4.81100       -0.29500
H          3.01400        6.50000       -0.66700
S          3.47400        5.21900       -2.63700
C          3.74600        6.82000       -3.44300
H          3.58100        6.71400       -4.51600
H          3.04900        7.55600       -3.04400
H          4.77000        7.15300       -3.27400
C          4.92000        5.31800        2.00900
O          4.79200        4.15100        1.64600
N          4.86400        5.65700        3.29900
H          5.00600        6.63900        3.51300
C          4.72700        4.73400        4.43800
H          5.35200        3.86100        4.24100
C          5.26500        5.41300        5.71200
H          4.67200        6.30600        5.91200
H          5.16000        4.73100        6.55700
C          6.74800        5.79700        5.58800
H          7.32400        4.88500        5.42800
H          6.88600        6.43300        4.71700
S          7.45800        6.66200        7.01700
C          6.51100        8.21000        6.98500
H          5.46900        8.01100        7.23200
H          6.92400        8.90000        7.72100
H          6.56800        8.66200        5.99500
C          3.28800        4.20200        4.61700
O          2.69200        4.29800        5.68300
N          2.68500        3.66000        3.56800
H          3.18900        3.57900        2.69500
H          1.74500        3.31800        3.67500
