66
0 1
H         11.94600        7.80600        2.77900
C         11.46000        8.75600        2.99900
H         11.58100        9.43100        2.15400
H         11.90200        9.19400        3.89200
C          9.98900        8.51000        3.23700
O          9.53400        7.37400        3.16400
N          9.24100        9.57700        3.52000
H          9.68600       10.47900        3.53800
C          7.79100        9.52300        3.73500
H          7.57500        8.64500        4.34600
C          7.35500       10.77000        4.53800
H          8.13100       10.98300        5.27400
H          7.28800       11.63300        3.87400
C          6.03200       10.60800        5.31600
H          6.12900        9.76200        5.99800
C          5.78600       11.86500        6.15200
H          4.88400       11.74000        6.75100
H          6.62700       12.03500        6.82400
H          5.66600       12.73000        5.49800
C          4.79800       10.38200        4.44100
H          3.89800       10.39200        5.05500
H          4.72700       11.16400        3.68400
H          4.85600        9.41100        3.95200
C          7.05400        9.34200        2.39300
O          6.56300       10.29700        1.79300
N          7.00600        8.10300        1.90200
H          7.51600        7.38000        2.39400
C          6.22400        7.73600        0.72000
H          6.49700        8.42000       -0.08300
C          6.59200        6.31100        0.28100
H          7.65300        6.28000        0.03000
H          6.42600        5.62700        1.11500
C          5.80800        5.82500       -0.89900
C          4.63300        5.16200       -0.82600
H          4.14500        4.87000        0.09600
N          4.09500        5.02900       -2.09000
H          3.15200        4.69700       -2.25300
C          4.91900        5.56900       -3.05200
C          4.80900        5.70000       -4.44400
H          3.94200        5.31400       -4.96000
C          5.83900        6.34100       -5.15300
H          5.77300        6.44800       -6.22800
C          6.95600        6.84600       -4.46400
H          7.74600        7.34000       -5.01400
C          7.05200        6.71800       -3.06400
H          7.91000        7.11800       -2.54400
C          6.03700        6.07300       -2.32200
C          4.70400        7.84900        0.98700
O          4.25200        7.42000        2.05200
N          3.88600        8.35400        0.03800
C          4.29300        8.99900       -1.20500
H          5.04300        8.42300       -1.74300
H          4.67900        9.99500       -0.98200
C          3.02900        9.11500       -2.05300
H          2.88100        8.19500       -2.62000
H          3.06600        9.97700       -2.71900
C          1.93800        9.25800       -0.99300
H          0.95800        8.97100       -1.37500
H          1.91400       10.29000       -0.63900
C          2.42400        8.34400        0.14100
H          2.12100        8.77800        1.09400
C          1.85000        6.91500        0.05300
O          1.49200        6.41100       -1.00700
N          1.75300        6.22500        1.18000
H          2.15000        6.60800        2.02600
H          1.36900        5.29600        1.14700
