59
0 1
H          0.66000        6.81500       -4.50200
C          0.74600        7.72600       -3.91200
H         -0.18100        8.29300       -3.96800
H          1.57000        8.33100       -4.28600
C          1.02100        7.35400       -2.47500
O          2.07700        7.68300       -1.94700
N          0.07400        6.65700       -1.85000
H         -0.73500        6.37100       -2.38300
C          0.17400        6.14100       -0.48200
H          1.20200        6.25500       -0.15100
C         -0.70900        6.95300        0.48700
H         -1.74700        6.92200        0.15400
H         -0.66600        6.44200        1.45000
C         -0.26600        8.41800        0.69500
H          0.81000        8.50300        0.54200
C         -0.99300        9.38900       -0.24000
H         -0.64500       10.40500       -0.05400
H         -0.78100        9.14300       -1.27800
H         -2.06900        9.34100       -0.07300
C         -0.57500        8.86100        2.12700
H         -0.26300        9.89600        2.26800
H         -1.64400        8.77600        2.32500
H         -0.02500        8.23800        2.83200
C         -0.21400        4.64700       -0.46000
O         -1.19300        4.28900       -1.11400
N          0.49500        3.77100        0.28700
C          0.06100        2.39800        0.50100
H          0.49600        1.75600       -0.26700
H         -1.02600        2.31000        0.48900
C          0.60300        2.01600        1.87400
H          0.73000        0.93800        1.97500
H         -0.05500        2.40700        2.65200
C          1.93900        2.75500        1.90300
H          2.68600        2.15900        1.37500
H          2.26700        2.95300        2.92400
C          1.66200        4.05600        1.13600
H          1.39000        4.83200        1.85200
C          2.92800        4.50700        0.38700
O          3.82200        5.07400        1.01000
N          2.99600        4.28800       -0.93000
H          2.20900        3.83600       -1.37600
C          4.02900        4.79200       -1.84400
H          4.44100        5.72200       -1.45000
C          5.16000        3.75600       -2.01600
H          4.71700        2.78500       -2.24300
H          5.77500        4.04200       -2.87200
C          6.09500        3.60300       -0.80700
H          5.52700        3.32700        0.08000
H          6.79600        2.79300       -1.01200
C          6.90600        4.86700       -0.54200
O          7.92400        5.12000       -1.16100
N          6.48000        5.72400        0.35600
H          7.03400        6.54700        0.49700
H          5.58800        5.56900        0.81900
C          3.40700        5.12000       -3.21100
O          2.35700        4.59500       -3.57100
N          4.04600        5.97200       -4.00100
H          3.63900        6.19200       -4.89400
H          4.89600        6.41300       -3.68800
