61
0 1
H          5.18500       12.03700       -1.77100
C          4.25400       11.57300       -1.45100
H          3.46600       11.78000       -2.17300
H          3.96600       11.96800       -0.47800
C          4.44700       10.08000       -1.33600
O          4.27800        9.52200       -0.26000
N          4.83500        9.43700       -2.43900
H          4.95500        9.98000       -3.27800
C          4.97000        7.97500       -2.54400
H          3.96500        7.56300       -2.44600
C          5.47800        7.63500       -3.96200
H          4.78700        8.06400       -4.68900
H          6.44800        8.10900       -4.10800
C          5.63100        6.13000       -4.26600
H          6.33100        5.68100       -3.56300
C          4.29800        5.38300       -4.20000
H          3.57300        5.83800       -4.87400
H          4.44800        4.34100       -4.48300
H          3.91100        5.40000       -3.18200
C          6.20100        5.95600       -5.67500
H          5.52000        6.37900       -6.41300
H          7.16800        6.45300       -5.74700
H          6.34200        4.89500       -5.88400
C          5.80800        7.29300       -1.42900
O          5.41400        6.20400       -1.01600
N          6.89400        7.88700       -0.88000
C          7.63000        9.03600       -1.38900
H          7.21100        9.95200       -0.97100
H          7.62300        9.07800       -2.47700
C          9.06000        8.85800       -0.88700
H          9.58500        9.81100       -0.81000
H          9.59800        8.16700       -1.53700
C          8.83500        8.21900        0.48000
H          8.57700        8.99500        1.20400
H          9.71000        7.66100        0.81500
C          7.63300        7.29700        0.24400
H          7.99900        6.31700       -0.06700
C          6.83100        7.10500        1.54500
O          7.30400        6.41000        2.43800
N          5.64000        7.70400        1.67000
H          5.30000        8.27500        0.90500
C          4.72300        7.48800        2.79900
H          5.31000        7.39200        3.71300
C          3.79100        8.70900        2.94100
H          3.15500        8.75800        2.05600
H          3.14100        8.54900        3.80200
C          4.50200       10.06700        3.11100
H          5.16400       10.25100        2.26500
C          3.46500       11.19000        3.15000
H          3.96600       12.15300        3.24300
H          2.88800       11.18100        2.22600
H          2.79200       11.04800        3.99600
C          5.32800       10.13300        4.39800
H          5.76400       11.12600        4.50700
H          4.69600        9.91900        5.25900
H          6.13800        9.40500        4.35600
C          3.90300        6.18500        2.68200
O          3.16000        5.83600        3.59100
N          3.99200        5.44900        1.57900
H          3.45700        4.60100        1.52800
H          4.59600        5.73800        0.82200
