66
0 1
H          9.15700        6.25700        7.86700
C          9.37700        7.18800        8.38600
H          9.78700        7.91800        7.68900
H         10.09500        6.99800        9.18100
C          8.10200        7.73200        8.98900
O          7.04400        7.13600        8.83300
N          8.20400        8.87200        9.67400
H          9.10800        9.31500        9.71200
C          7.11500        9.46600       10.46500
H          6.79100        8.74000       11.21300
C          7.62900       10.72600       11.19300
H          8.18700       11.35100       10.49400
H          6.75500       11.29700       11.51000
C          8.47700       10.46600       12.45500
H          7.91900        9.81900       13.13100
C          9.83800        9.82300       12.17100
H          9.70200        8.79900       11.82700
H         10.38200       10.40300       11.42500
H         10.42400        9.78500       13.08900
C          8.73600       11.79500       13.16700
H          9.29400       11.62000       14.08700
H          9.30600       12.46500       12.52200
H          7.78700       12.26600       13.42600
C          5.86500        9.80800        9.63000
O          4.76000        9.80100       10.16400
N          6.01300       10.04900        8.32500
H          6.95200       10.01600        7.94100
C          4.90000       10.26700        7.39000
H          4.26200       11.04000        7.82100
C          5.44500       10.81400        6.05200
H          4.61000       11.26000        5.51000
H          6.16000       11.61200        6.25700
C          6.09900        9.77500        5.11900
H          5.34900        9.04700        4.81700
H          6.44100       10.28100        4.21600
C          7.29300        9.05100        5.73300
O          8.11800        9.62200        6.43100
N          7.42000        7.76000        5.54000
H          6.70900        7.23200        5.05300
H          8.18400        7.30400        5.99800
C          4.00000        9.03000        7.18100
O          2.94200        9.15300        6.56900
N          4.40100        7.84800        7.66600
H          5.31300        7.79300        8.10900
C          3.57100        6.63600        7.71300
H          2.68800        6.78200        7.09200
C          4.35800        5.44500        7.13500
H          5.18500        5.23000        7.81300
H          3.70500        4.57100        7.13400
C          4.91600        5.59200        5.72300
C          6.07900        4.87700        5.37200
H          6.56300        4.24700        6.10700
C          6.60600        4.96700        4.06900
H          7.49200        4.41500        3.79300
C          5.96400        5.76700        3.10100
O          6.47800        5.85200        1.84800
H          5.88000        6.28600        1.23800
C          4.80000        6.48600        3.44700
H          4.30100        7.09700        2.71100
C          4.27600        6.39100        4.75100
H          3.37000        6.93100        4.99600
C          3.02700        6.33000        9.12500
O          2.42500        5.28700        9.35000
N          3.21700        7.20500       10.10600
H          3.69900        8.07700        9.93400
H          2.84900        6.98600       11.01600
