59
0 1
H         -0.53800        4.44300        2.92300
C          0.00300        4.49100        3.86600
H          0.23700        3.48700        4.21400
H         -0.60400        5.00400        4.61100
C          1.28700        5.26200        3.66700
O          1.49300        6.28600        4.30400
N          2.14300        4.76900        2.77400
H          1.86500        3.95100        2.25100
C          3.42800        5.37300        2.40500
H          3.41300        6.43200        2.66600
C          4.58500        4.68300        3.15900
H          4.53800        3.61500        2.94200
H          5.53100        5.05500        2.76400
C          4.59800        4.87400        4.68900
H          3.64600        4.55500        5.11200
C          5.70100        4.00600        5.29800
H          5.69900        4.11900        6.38200
H          5.52000        2.95900        5.05800
H          6.67400        4.30400        4.90800
C          4.87100        6.32500        5.08900
H          4.05700        6.96400        4.74900
H          4.92400        6.40100        6.17400
H          5.81100        6.66900        4.65700
C          3.64500        5.28200        0.88700
O          3.12200        4.38300        0.23200
N          4.43800        6.20200        0.33400
H          4.87800        6.88200        0.93800
C          4.77700        6.28000       -1.09400
H          4.66900        5.28800       -1.53300
C          3.82000        7.24500       -1.81800
H          3.85200        8.21800       -1.32600
H          4.16000        7.37700       -2.84600
C          2.37300        6.74100       -1.85900
H          2.37500        5.72700       -2.26100
H          1.97200        6.70000       -0.84700
S          1.25400        7.73900       -2.88100
C          1.11900        9.23900       -1.87000
H          0.41800        9.92800       -2.34000
H          0.75500        8.97900       -0.87500
H          2.09300        9.72100       -1.78800
C          6.23400        6.74500       -1.27800
O          6.73500        7.48000       -0.42300
N          6.92400        6.35900       -2.37100
C          6.45300        5.44300       -3.40500
H          5.51500        5.78100       -3.84600
H          6.32800        4.44700       -2.97600
C          7.54600        5.40200       -4.47300
H          7.36900        6.18300       -5.21400
H          7.60800        4.42400       -4.95200
C          8.80700        5.72300       -3.67200
H          9.61200        6.09900       -4.30500
H          9.13800        4.82700       -3.14500
C          8.30800        6.75800       -2.65300
H          8.90800        6.67400       -1.74700
C          8.40400        8.21600       -3.15100
O          8.73000        8.49200       -4.29800
N          8.09100        9.18500       -2.30200
H          7.78300        8.94700       -1.36900
H          8.14600       10.13800       -2.61900
