59
0 1
H         17.25500       12.04900        2.83000
C         16.34200       12.55000        3.14600
H         16.33300       13.56900        2.76200
H         16.28400       12.56900        4.23300
C         15.14700       11.80800        2.59600
O         14.36100       12.37500        1.84600
N         15.01000       10.53600        2.96600
H         15.67800       10.14900        3.61200
C         13.86400        9.71000        2.58100
H         13.71200        9.82100        1.50600
C         14.18500        8.23100        2.87300
H         15.04700        7.93500        2.27300
H         14.45900        8.14000        3.92500
C         13.02500        7.25100        2.59800
H         12.16900        7.50800        3.22100
C         12.59300        7.25700        1.13000
H         12.16600        8.22400        0.86800
H         13.44200        7.03900        0.48300
H         11.81800        6.50500        0.97700
C         13.46300        5.83100        2.95700
H         14.30700        5.52700        2.33800
H         13.75000        5.79000        4.00800
H         12.63400        5.14200        2.79800
C         12.58500       10.17700        3.29600
O         12.47100       10.06500        4.51600
N         11.60500       10.66000        2.53100
H         11.76900       10.74800        1.54100
C         10.24800       10.89200        3.03400
H         10.33300       11.39300        3.99700
C          9.50100       11.82800        2.07300
H         10.13300       12.69000        1.85700
H          9.31200       11.30500        1.13400
C          8.18900       12.32800        2.62000
N          7.02200       11.57600        2.74300
C          6.10900       12.39100        3.28900
H          5.08700       12.10700        3.50600
N          6.64300       13.60200        3.52300
H          6.15200       14.39000        3.92100
C          7.95700       13.58100        3.11000
H          8.67300       14.39000        3.15600
C          9.51400        9.54500        3.22200
O          9.58800        8.70500        2.32400
N          8.81400        9.30500        4.35000
C          8.67600       10.20400        5.48800
H          8.33000       11.19200        5.18400
H          9.63500       10.28200        6.00300
C          7.64900        9.55100        6.41000
H          6.64200        9.83400        6.09900
H          7.82000        9.81000        7.45500
C          7.87300        8.06300        6.14700
H          7.00000        7.46900        6.42100
H          8.74800        7.72400        6.70300
C          8.17500        8.01600        4.64400
H          8.88600        7.21100        4.45300
C          6.90800        7.70800        3.81900
O          6.31400        6.64900        3.97800
N          6.43800        8.59900        2.95700
H          5.62400        8.35800        2.41900
H          6.91500        9.48000        2.82000
