69
0 1
H          3.15500        5.96500        0.61600
C          3.99700        6.54400        0.23900
H          4.39800        6.06100       -0.65100
H          4.76500        6.61500        1.00600
C          3.51600        7.92700       -0.12700
O          2.32200        8.19500       -0.05900
N          4.45200        8.79300       -0.52100
H          5.40400        8.46400       -0.53500
C          4.21500       10.17100       -0.98500
H          3.16500       10.40100       -0.80800
C          5.04300       11.14400       -0.11600
H          4.84200       10.90300        0.92900
H          6.10200       10.95900       -0.30200
C          4.77500       12.65400       -0.31100
H          5.14300       12.98400       -1.28000
C          3.29400       13.01900       -0.19500
H          2.87700       12.63700        0.73600
H          3.17500       14.10200       -0.22900
H          2.74500       12.60800       -1.04100
C          5.53500       13.43700        0.76200
H          5.39600       14.50500        0.59900
H          5.16600       13.17400        1.75400
H          6.59800       13.21000        0.69600
C          4.41600       10.29700       -2.51100
O          5.01600       11.23500       -3.02300
N          3.94300        9.30100       -3.26000
H          3.47000        8.54300       -2.78000
C          3.97100        9.22100       -4.73100
H          4.94200        9.57300       -5.08100
C          3.82300        7.73800       -5.11900
H          3.78000        7.63600       -6.20400
H          4.70700        7.19900       -4.77600
C          2.61100        7.08500       -4.50000
N          2.52900        6.65000       -3.17400
C          1.26400        6.24300       -2.99600
H          0.87100        5.85700       -2.06400
N          0.55400        6.41200       -4.12600
H         -0.42800        6.20100       -4.23700
C          1.38600        6.95000       -5.08400
H          1.12600        7.26300       -6.08700
C          2.91600       10.12200       -5.41100
O          2.33600        9.75400       -6.43200
N          2.61100       11.27800       -4.81800
H          3.17700       11.57000       -4.02800
C          1.48100       12.14500       -5.16600
H          1.40600       12.21400       -6.25200
C          0.18300       11.52000       -4.62200
H         -0.64600       12.20700       -4.79700
H         -0.02900       10.61600       -5.19500
C          0.19800       11.15500       -3.16600
C          0.56900        9.95000       -2.68000
H          0.88500        9.11000       -3.28700
N          0.54600        9.97300       -1.30200
H          0.90900        9.21200       -0.72800
C          0.14500       11.19900       -0.82200
C         -0.01900       11.70700        0.47400
H          0.17600       11.08000        1.33100
C         -0.42800       13.04100        0.63700
H         -0.55500       13.45300        1.62900
C         -0.66400       13.84400       -0.49400
H         -0.97000       14.87300       -0.36500
C         -0.49200       13.32200       -1.79200
H         -0.66500       13.95300       -2.64900
C         -0.08300       11.98500       -1.99300
C          1.68700       13.56500       -4.61500
O          2.48900       13.80000       -3.72000
N          0.96000       14.54500       -5.13700
H          1.10000       15.47400       -4.77600
H          0.29900       14.35500       -5.87000
