64
0 1
H         20.12400        5.09200       15.42800
C         20.36200        5.46100       16.42500
H         21.43600        5.62500       16.49800
H         20.04500        4.73500       17.17100
C         19.63600        6.76500       16.65400
O         18.85000        7.18600       15.81400
N         19.89500        7.39700       17.80000
H         20.59500        6.99100       18.39900
C         19.15800        8.57000       18.30200
H         18.11300        8.45400       18.01200
C         19.22500        8.59500       19.84400
H         20.26400        8.74900       20.14000
H         18.65200        9.45200       20.20100
C         18.69100        7.33400       20.55200
H         19.27900        6.46700       20.24700
C         18.83700        7.49600       22.06500
H         18.49600        6.59200       22.56800
H         19.88400        7.66400       22.31900
H         18.24400        8.34400       22.41000
C         17.21800        7.06400       20.24100
H         16.86900        6.20900       20.82000
H         16.61600        7.93700       20.49200
H         17.09400        6.83100       19.18400
C         19.58500        9.92900       17.70300
O         19.03600       10.95900       18.08600
N         20.54000        9.95800       16.76900
H         20.94400        9.07100       16.49600
C         20.92300       11.15400       15.99500
H         21.00700       11.98200       16.70200
C         22.33400       10.96600       15.38000
H         22.67900       11.93800       15.02500
H         23.00500       10.67100       16.18800
C         22.52100        9.95600       14.22500
H         22.20000       10.40600       13.28600
H         23.58200        9.72700       14.12400
C         21.76200        8.65700       14.44800
O         22.14900        7.82400       15.25000
N         20.59400        8.50700       13.86900
H         20.00400        7.75900       14.21100
H         20.20200        9.29600       13.37100
C         19.81700       11.55500       14.98900
O         19.91000       11.30600       13.78700
N         18.72400       12.12300       15.50300
H         18.70800       12.27000       16.50800
C         17.46900       12.36700       14.78500
H         17.62900       12.22200       13.71700
C         16.40600       11.35500       15.26700
H         16.23500       11.53600       16.33000
H         15.46900       11.55100       14.74500
C         16.77000        9.86700       15.08300
H         17.73300        9.66400       15.54700
C         15.72600        8.99000       15.77200
H         14.74500        9.14400       15.32300
H         16.01100        7.94200       15.67300
H         15.68300        9.23700       16.83300
C         16.83700        9.46500       13.60900
H         17.61700       10.03000       13.10200
H         17.08300        8.40500       13.53700
H         15.87900        9.64700       13.12300
C         16.98100       13.81200       14.97700
O         17.28100       14.46800       15.96600
N         16.19500       14.32500       14.04100
H         15.94600       13.78200       13.23200
H         15.86800       15.26900       14.16600
