62
0 1
H         13.12700        2.42600        6.35200
C         13.77900        3.13200        5.83900
H         14.46800        2.59800        5.18800
H         14.34000        3.70800        6.57300
C         12.93700        4.07500        5.01500
O         12.94900        5.27800        5.24800
N         12.17600        3.53000        4.06500
H         12.18400        2.52600        3.97900
C         11.30300        4.30500        3.16400
H         11.91500        5.03800        2.63700
C         10.65300        3.36100        2.13400
H         10.02400        2.64900        2.67000
H         10.00300        3.95500        1.48900
C         11.63600        2.57500        1.24300
H         12.27700        1.95400        1.86800
C         10.85200        1.65600        0.30600
H         10.23600        0.97200        0.88900
H         10.21200        2.24700       -0.35000
H         11.54400        1.07200       -0.30100
C         12.51500        3.49100        0.38900
H         11.89400        4.15500       -0.21200
H         13.16800        4.08500        1.02700
H         13.14100        2.89000       -0.27100
C         10.22000        5.11300        3.90800
O          9.70200        6.09000        3.37500
N          9.92400        4.74500        5.15600
H         10.40000        3.92600        5.51800
C          9.05600        5.47200        6.08400
H          8.06800        5.57500        5.63200
C          8.92400        4.66300        7.38900
H          9.90400        4.54600        7.85600
H          8.30600        5.24700        8.07400
C          8.25200        3.28400        7.23200
H          7.82500        3.01400        8.19800
H          7.42700        3.35800        6.52300
C          9.17400        2.13500        6.81000
O         10.32600        2.29100        6.43400
N          8.69400        0.91300        6.84300
H          9.32800        0.17900        6.57900
H          7.75600        0.73700        7.15100
C          9.55100        6.89900        6.39800
O          8.76000        7.72200        6.84900
N         10.82700        7.21300        6.14200
H         11.44800        6.48600        5.80200
C         11.37000        8.57400        6.23700
H         11.05400        8.99300        7.19300
C         12.90900        8.46700        6.23300
H         13.20900        7.80200        7.04500
H         13.22300        8.00700        5.29500
C         13.68900        9.78500        6.39200
H         14.75400        9.55400        6.41900
H         13.51800       10.42300        5.52500
C         13.33500       10.55000        7.66400
O         13.94900       10.39500        8.70400
N         12.33000       11.39500        7.63600
H         12.11800       11.87400        8.49100
H         11.77500       11.48700        6.79000
C         10.84000        9.51800        5.13100
O         10.95000       10.73600        5.24800
N         10.25600        9.00800        4.05300
H          9.89700        9.64000        3.35800
H         10.13600        8.00800        3.95800
