58
0 1
H          4.43000       11.88900        1.38300
C          5.32800       11.76200        0.78000
H          6.16700       11.50800        1.42400
H          5.53800       12.68300        0.23900
C          5.10000       10.64200       -0.20700
O          4.03200       10.04100       -0.22200
N          6.10800       10.35800       -1.03100
H          6.96600       10.87300       -0.93300
C          6.07000        9.25000       -1.99200
H          5.17500        9.39400       -2.60000
C          7.28400        9.31200       -2.94500
H          7.03200        8.70600       -3.81700
H          7.40700       10.33800       -3.29500
C          8.63600        8.79300       -2.40500
H          8.53000        7.75600       -2.09000
C          9.67200        8.84000       -3.52900
H         10.61900        8.43500       -3.17400
H          9.33300        8.23300       -4.36900
H          9.82200        9.86700       -3.86400
C          9.18300        9.61600       -1.23600
H         10.18000        9.25900       -0.97400
H          9.24000       10.67000       -1.50700
H          8.54800        9.48400       -0.36100
C          5.92700        7.88500       -1.29600
O          6.45000        7.67200       -0.20000
N          5.22700        6.95000       -1.94000
H          4.85000        7.16800       -2.85200
C          4.96700        5.59400       -1.44600
H          5.83200        5.27800       -0.87200
C          3.70900        5.59800       -0.54800
H          2.93000        6.19900       -1.02000
H          3.32300        4.58100       -0.46800
C          3.94700        6.11400        0.88000
H          4.22000        7.16800        0.86600
H          3.01700        6.03000        1.44100
C          5.01000        5.29000        1.60400
O          4.82500        4.13600        1.97500
O          6.21900        5.88800        1.74200
H          6.29500        6.67600        1.17300
C          4.78400        4.60200       -2.61400
O          4.38000        5.03900       -3.69400
N          5.01300        3.28500       -2.41500
C          4.67800        2.27200       -3.40300
H          5.53100        2.11700       -4.06500
H          3.79700        2.55000       -3.98500
C          4.40200        1.00600       -2.59900
H          4.55700        0.10600       -3.19400
H          3.38700        1.03800       -2.19700
C          5.41500        1.12200       -1.46200
H          6.38200        0.75300       -1.81000
H          5.09400        0.56700       -0.58000
C          5.49100        2.63000       -1.18600
H          4.80700        2.86200       -0.37000
C          6.91800        3.02900       -0.77700
O          7.74900        3.35800       -1.61300
N          7.22200        3.01500        0.51200
H          6.50400        2.85000        1.20500
H          8.14600        3.30400        0.78800
