62
0 1
H         11.96600        8.55100       -0.81300
C         11.35500        7.70900       -0.49100
H         10.97000        7.89800        0.51000
H         11.94800        6.79700       -0.50000
C         10.18900        7.56000       -1.43900
O         10.00100        8.39400       -2.31400
N          9.40500        6.49900       -1.24800
H          9.64700        5.87900       -0.48300
C          8.20400        6.16700       -2.03800
H          7.87300        7.05900       -2.57100
C          8.54800        5.07200       -3.07300
H          8.90700        4.19700       -2.52900
H          7.63500        4.78000       -3.59400
C          9.59400        5.45300       -4.13900
H         10.50600        5.80500       -3.65800
C          9.94800        4.22000       -4.97100
H         10.70300        4.48000       -5.71300
H         10.35000        3.44200       -4.32300
H          9.06000        3.84200       -5.47900
C          9.08100        6.53100       -5.09700
H          9.83400        6.73700       -5.85700
H          8.16100        6.20100       -5.57700
H          8.89300        7.45400       -4.55000
C          7.01700        5.74900       -1.14100
O          6.05700        5.13600       -1.59900
N          7.11500        6.02900        0.16100
H          7.95100        6.52100        0.44400
C          6.36100        5.34300        1.22300
H          5.42600        4.94800        0.82200
C          7.23300        4.17300        1.70900
H          6.68100        3.60400        2.45800
H          7.44000        3.50600        0.87100
C          8.54900        4.62700        2.30200
N          9.62700        5.15900        1.58500
C         10.54600        5.49600        2.50200
H         11.50900        5.93500        2.27500
N         10.10000        5.21900        3.74000
H         10.60800        5.38700        4.59700
C          8.83900        4.67600        3.63400
H          8.18500        4.36800        4.43900
C          6.00500        6.24900        2.41200
O          5.22000        5.86400        3.27400
N          6.58100        7.44900        2.47500
H          7.18600        7.71600        1.70800
C          6.46300        8.43800        3.55500
H          6.47100        7.91000        4.50900
C          7.71100        9.33600        3.49200
H          7.64600       10.12000        4.24700
H          8.58800        8.73000        3.72300
C          7.92300        9.95900        2.13300
N          8.44000        9.29300        1.01600
C          8.37600       10.17600        0.00600
H          8.69700        9.97900       -1.00900
N          7.84100       11.33500        0.42600
H          7.66900       12.14200       -0.15600
C          7.53900       11.21400        1.76400
H          7.05100       11.94000        2.40100
C          5.14300        9.23800        3.52500
O          5.10800       10.42300        3.83900
N          4.03700        8.62300        3.13200
H          3.17800        9.14600        3.10500
H          4.06700        7.63400        2.93000
