69
0 1
H          6.13900        9.69800       -8.39300
C          6.95600        9.41500       -7.72900
H          7.81700       10.05200       -7.91900
H          7.21900        8.37300       -7.89700
C          6.50600        9.59300       -6.29800
O          5.37800        9.99800       -6.05400
N          7.39400        9.28700       -5.35400
H          8.31000        8.97300       -5.64000
C          7.15900        9.40700       -3.91100
H          6.52900       10.28400       -3.74500
C          6.38500        8.17400       -3.39500
H          6.17900        8.29800       -2.33100
H          5.41800        8.18100       -3.90100
C          7.05600        6.80000       -3.63500
H          7.71900        6.84200       -4.49800
C          7.85500        6.32300       -2.42100
H          8.33800        5.37400       -2.65400
H          8.63000        7.04400       -2.17400
H          7.19300        6.18300       -1.57000
C          5.99300        5.73500       -3.91300
H          6.47000        4.76900       -4.07700
H          5.30300        5.66000       -3.07300
H          5.43600        6.00200       -4.81200
C          8.47900        9.64700       -3.16600
O          9.51300        9.08400       -3.52100
N          8.45000       10.48300       -2.12700
H          7.57100       10.91200       -1.86000
C          9.64200       10.90900       -1.37600
H         10.46500       11.07000       -2.07500
C          9.33100       12.24300       -0.68500
H         10.22900       12.60800       -0.18400
H          9.04300       12.98000       -1.43600
C          8.21900       12.11900        0.32200
N          6.86500       11.98400        0.00700
C          6.24400       11.76900        1.17500
H          5.18200       11.59300        1.28100
N          7.13100       11.73800        2.18400
H          6.91900       11.45800        3.13700
C          8.38600       11.95000        1.66400
H          9.32900       11.92100        2.19300
C         10.14200        9.88300       -0.34700
O         11.24900       10.03400        0.15900
N          9.36200        8.84200       -0.03300
H          8.43700        8.80800       -0.42900
C          9.74900        7.78900        0.92100
H         10.12200        8.27500        1.82300
C          8.52200        6.94700        1.30900
H          8.28200        6.28600        0.47700
H          8.80400        6.30500        2.14500
C          7.27400        7.68100        1.70700
C          6.08400        7.60800        1.06600
H          5.89600        7.01900        0.17800
N          5.14100        8.35500        1.74300
H          4.17300        8.41600        1.45900
C          5.67300        8.94100        2.87100
C          5.12800        9.76700        3.86600
H          4.08300       10.03700        3.83900
C          5.95800       10.22400        4.90500
H          5.55200       10.84900        5.69000
C          7.31400        9.85300        4.93000
H          7.94800       10.19400        5.73800
C          7.84800        9.01800        3.92800
H          8.88800        8.72700        3.96800
C          7.04400        8.54000        2.86900
C         10.88400        6.86500        0.42900
O         11.33500        5.99600        1.16500
N         11.35200        6.99400       -0.80800
H         12.09900        6.38700       -1.09900
H         10.99800        7.72200       -1.40800
