69
0 1
H         11.36200       10.20000        2.01000
C         10.98400        9.82000        1.06200
H         11.81000        9.69900        0.36500
H         10.25000       10.51500        0.66100
C         10.31700        8.48800        1.30200
O         10.00800        8.16700        2.44100
N         10.07900        7.72600        0.23000
H         10.32100        8.12800       -0.66600
C          9.43200        6.39600        0.19600
H          9.37600        6.10600       -0.85200
C         10.30500        5.34000        0.90700
H         10.32500        5.57100        1.97300
H          9.82200        4.36700        0.79700
C         11.75700        5.22200        0.40500
H         12.26300        6.18100        0.50900
C         12.51000        4.19300        1.24800
H         12.04000        3.21400        1.15700
H         13.54600        4.12900        0.91600
H         12.49900        4.50000        2.29500
C         11.83100        4.77900       -1.05800
H         12.87300        4.65500       -1.35200
H         11.30600        3.83300       -1.18900
H         11.38200        5.53500       -1.69800
C          7.96800        6.33700        0.68100
O          7.23600        5.43800        0.27700
N          7.50300        7.31900        1.45600
H          8.19400        7.96100        1.82500
C          6.11100        7.49000        1.90200
H          5.81800        6.58200        2.43000
C          6.02800        8.65600        2.91000
H          4.98100        8.89600        3.09700
H          6.44800        8.30900        3.85500
C          6.77800        9.94600        2.52500
H          6.57100       10.69400        3.29100
H          7.84800        9.74300        2.56700
S          6.42300       10.69000        0.90600
C          4.68800       11.17000        1.12700
H          4.33200       11.66600        0.22400
H          4.07500       10.28700        1.31000
H          4.60000       11.85400        1.97100
C          5.08000        7.65400        0.76400
O          3.88000        7.61400        1.02000
N          5.52500        7.80200       -0.48700
H          6.52100        7.84300       -0.62400
C          4.68700        7.73200       -1.68900
H          3.76500        8.28800       -1.51200
C          5.44700        8.40200       -2.84300
H          4.84400        8.33400       -3.75000
H          5.55100        9.46200       -2.61000
C          6.81500        7.85200       -3.13500
C          7.06800        6.67000       -3.74000
H          6.30400        5.98400       -4.09500
N          8.43200        6.47700       -3.84000
H          8.84400        5.66600       -4.27800
C          9.13300        7.54500       -3.32300
C         10.50200        7.83600       -3.22900
H         11.23300        7.14500       -3.62300
C         10.90600        9.05400       -2.65900
H         11.95600        9.31100       -2.61100
C          9.93800        9.95100       -2.17200
H         10.24800       10.90100       -1.75500
C          8.56600        9.63800       -2.24800
H          7.83200       10.34400       -1.88400
C          8.12400        8.43400       -2.84100
C          4.26900        6.29600       -2.06900
O          3.48800        6.10400       -2.99400
N          4.78200        5.26100       -1.41500
H          4.48100        4.33700       -1.66900
H          5.46700        5.40800       -0.68500
