65
0 1
H         15.51100       14.11900       -2.02300
C         15.11800       14.57100       -1.11400
H         14.31200       15.25700       -1.36700
H         15.91400       15.10500       -0.59800
C         14.58100       13.48300       -0.21600
O         14.63600       12.30900       -0.57200
N         14.06300       13.87500        0.94900
H         14.01700       14.86300        1.13600
C         13.39100       12.97500        1.88900
H         13.86600       11.99500        1.80900
C         13.59900       13.48800        3.32800
H         14.67000       13.54900        3.52600
H         13.18600       14.49600        3.39300
C         12.94000       12.62800        4.42700
H         11.86700       12.56500        4.24700
C         13.51500       11.20900        4.48600
H         13.32600       10.67100        3.55900
H         14.59100       11.25100        4.66100
H         13.04500       10.66200        5.30300
C         13.15300       13.28300        5.79000
H         14.21600       13.34100        6.02200
H         12.72600       14.28500        5.78700
H         12.64600       12.69500        6.55800
C         11.90100       12.80700        1.54000
O         11.20900       13.77100        1.22700
N         11.41300       11.57300        1.65200
H         12.09100       10.84200        1.83500
C         10.06200       11.12900        1.28100
H          9.40100       11.99700        1.30000
C         10.07000       10.58200       -0.16600
H          9.05200       10.29500       -0.43100
H         10.36100       11.38700       -0.84400
C         10.99200        9.36800       -0.40700
H         10.78300        8.59600        0.33000
H         10.78400        8.96000       -1.39600
C         12.46900        9.75000       -0.34800
O         13.18100        9.60200        0.64000
O         12.91300       10.42900       -1.42300
H         13.74100       10.86900       -1.16300
C          9.48100       10.12600        2.30200
O          8.53200        9.40500        2.00100
N         10.05300       10.07500        3.51000
H         10.77300       10.74900        3.72100
C          9.69400        9.14600        4.58500
H          8.69700        8.74700        4.39400
C         10.69000        7.97400        4.62400
H         11.65700        8.35700        4.95300
H         10.35500        7.25900        5.37700
C         10.88000        7.22300        3.31700
C         12.13300        7.23100        2.67200
H         12.96200        7.78300        3.09300
C         12.31200        6.52700        1.46600
H         13.26600        6.54000        0.96100
C         11.23600        5.81800        0.89500
O         11.40700        5.16200       -0.28200
H         10.61400        4.70100       -0.55500
C          9.97800        5.81100        1.53700
H          9.14700        5.28200        1.09800
C          9.80500        6.51100        2.74800
H          8.83800        6.51800        3.22900
C          9.66300        9.86700        5.94100
O         10.36800       10.84800        6.15200
N          8.87400        9.38200        6.89000
H          8.30200        8.57300        6.71400
H          8.86100        9.85300        7.78000
