64
0 1
H          9.69300        7.78400        2.11500
C          9.05700        8.66800        2.10200
H          9.58400        9.51400        2.53700
H          8.14800        8.47400        2.66800
C          8.68400        8.98900        0.67400
O          7.51200        8.95600        0.32000
N          9.68700        9.28800       -0.15300
H         10.62100        9.27400        0.22200
C          9.50900        9.70900       -1.55400
H          8.75900       10.50200       -1.55600
C         10.81800       10.33700       -2.08200
H         10.66100       10.64100       -3.11800
H         10.98600       11.25000       -1.50900
C         12.10800        9.49100       -2.00600
H         12.28600        9.19800       -0.97100
C         12.08400        8.23100       -2.87200
H         11.40200        7.49700       -2.45000
H         11.77000        8.48000       -3.88700
H         13.07600        7.78100       -2.90400
C         13.29100       10.34700       -2.46100
H         14.21800        9.78200       -2.36100
H         13.16000       10.63900       -3.50400
H         13.36200       11.24200       -1.84400
C          8.93300        8.63100       -2.49900
O          8.65100        8.91900       -3.65700
N          8.73900        7.40200       -2.01500
H          8.97500        7.23100       -1.04600
C          8.01200        6.32900       -2.70500
H          8.25100        6.34500       -3.76900
C          8.46600        4.99300       -2.09300
H          8.03900        4.17300       -2.67200
H          9.55300        4.91500       -2.14700
C          8.03100        4.85600       -0.65300
N          8.55400        5.58500        0.41900
C          7.71400        5.37400        1.44500
H          7.80600        5.83600        2.41900
N          6.70500        4.56800        1.07300
H          5.87500        4.38100        1.62200
C          6.89400        4.22400       -0.24500
H          6.21300        3.67300       -0.87800
C          6.48300        6.46300       -2.56800
O          5.75400        5.83100       -3.33100
N          6.00900        7.23200       -1.57600
H          6.70200        7.72100       -1.01900
C          4.62700        7.34000       -1.08300
H          4.69300        7.95700       -0.18700
C          3.77000        8.12500       -2.10300
H          4.33200        9.01800       -2.38200
H          3.66100        7.52900       -3.00900
C          2.36900        8.59900       -1.66400
H          2.00700        9.26500       -2.44700
C          1.33600        7.47800       -1.52700
H          1.35600        6.84700       -2.41400
H          1.53100        6.87600       -0.64100
H          0.34300        7.91600       -1.43100
C          2.39900        9.40000       -0.36100
H          3.13300       10.20200       -0.44100
H          1.41800        9.83700       -0.17900
H          2.65800        8.75400        0.47800
C          4.02700        6.00200       -0.60400
O          3.79600        5.80600        0.58500
N          3.78500        5.04900       -1.49300
H          3.38000        4.18400       -1.18300
H          4.07200        5.19800       -2.45200
