71
0 1
H          1.01900        9.51600       -4.50600
C          1.52000        8.80500       -3.85000
H          2.44100        9.24500       -3.47800
H          1.74100        7.89100       -4.39800
C          0.60600        8.47900       -2.69500
O         -0.58500        8.74300       -2.76400
N          1.16100        7.91200       -1.62200
H          2.15400        7.74300       -1.64600
C          0.39600        7.38100       -0.48000
H         -0.26600        6.60000       -0.85800
C          1.40300        6.74100        0.49900
H          1.97600        5.98400       -0.04000
H          2.09800        7.51500        0.82800
C          0.79200        6.08400        1.75400
H          0.25500        6.83100        2.33700
C         -0.15600        4.93500        1.40800
H         -1.02700        5.31800        0.87600
H          0.35300        4.19500        0.79100
H         -0.50700        4.46100        2.32400
C          1.91500        5.52300        2.62700
H          1.49200        5.08900        3.53300
H          2.46700        4.75400        2.08600
H          2.59600        6.32500        2.91300
C         -0.50600        8.42200        0.21700
O         -1.54200        8.06700        0.77300
N         -0.15200        9.70700        0.14500
H          0.67300        9.93600       -0.38700
C         -0.95900       10.82600        0.65200
H         -1.21500       10.63600        1.69600
C         -0.11400       12.10400        0.58000
H         -0.71800       12.95100        0.91000
H          0.71500       12.00800        1.28200
C          0.45500       12.40800       -0.77400
C         -0.16800       13.11500       -1.74300
H         -1.14900       13.56600       -1.64200
N          0.62400       13.14900       -2.87500
H          0.35600       13.62600       -3.72400
C          1.80400       12.46100       -2.69000
C          2.91300       12.22000       -3.51300
H          2.94300       12.61600       -4.51700
C          3.99100       11.47200       -3.00800
H          4.86100       11.29100       -3.62400
C          3.93900       10.96400       -1.69600
H          4.77700       10.40100       -1.30800
C          2.81600       11.20700       -0.88000
H          2.80200       10.83900        0.13600
C          1.72300       11.96800       -1.35300
C         -2.29300       11.02800       -0.09400
O         -3.14700       11.76100        0.39500
N         -2.48700       10.39500       -1.25700
H         -1.73400        9.82600       -1.62600
C         -3.75900       10.37700       -1.99100
H         -4.25300       11.34000       -1.86100
C         -3.47800       10.17000       -3.49400
H         -3.06900        9.16800       -3.62900
H         -4.42700       10.20900       -4.03100
C         -2.51000       11.18700       -4.13100
H         -1.55500       11.17300       -3.60800
C         -2.24800       10.80900       -5.59000
H         -1.54400       11.51200       -6.03400
H         -1.81800        9.80800       -5.63000
H         -3.18100       10.82300       -6.15400
C         -3.06400       12.61400       -4.10100
H         -3.18500       12.94200       -3.06900
H         -2.37400       13.29000       -4.60300
H         -4.03200       12.64700       -4.60200
C         -4.75000        9.31700       -1.46200
O         -5.87700        9.23200       -1.93500
N         -4.36800        8.48400       -0.50000
H         -3.43800        8.54500       -0.11000
H         -5.03200        7.80700       -0.16600
