68
0 1
H         14.35200        6.87700        8.43300
C         13.97600        7.30700        7.50700
H         14.68100        7.10700        6.70000
H         13.84900        8.38200        7.62300
C         12.64600        6.68000        7.16600
O         12.49900        6.10000        6.09700
N         11.67500        6.81000        8.07000
H         11.90300        7.32500        8.90600
C         10.31800        6.23900        7.95000
H         10.13900        5.96000        6.91200
C         10.21900        4.96500        8.81700
H         10.44800        5.23800        9.84800
H          9.18800        4.60700        8.79600
C         11.13300        3.79500        8.40000
H         12.17000        4.12800        8.36600
C         11.03100        2.67600        9.43700
H         10.00600        2.30600        9.49200
H         11.69300        1.85600        9.16000
H         11.33200        3.05000       10.41600
C         10.74700        3.21100        7.04000
H         11.38100        2.35400        6.81400
H          9.70300        2.89500        7.04600
H         10.89500        3.95300        6.25700
C          9.19200        7.23200        8.31300
O          8.01600        6.90200        8.20900
N          9.53200        8.45100        8.73200
H         10.51300        8.69700        8.67100
C          8.63200        9.46200        9.31200
H          7.97200        8.93200       10.00100
C          9.47300       10.44900       10.15700
H          8.79500       10.95000       10.85100
H         10.18100        9.88200       10.76300
C         10.24200       11.55100        9.39400
H          9.53000       12.22000        8.91100
H         10.79700       12.15100       10.11400
C         11.23100       11.05100        8.34200
O         11.82500        9.97800        8.37600
O         11.42500       11.90800        7.32400
H         11.92800       11.45900        6.63800
C          7.69800       10.17500        8.30300
O          7.17200       11.24400        8.60000
N          7.51500        9.62000        7.10400
H          7.89900        8.69500        6.96800
C          6.94200       10.27400        5.91500
H          7.36500       11.27800        5.86400
C          7.41800        9.51200        4.66700
H          6.82600        8.60000        4.57100
H          7.22400       10.12300        3.78500
C          8.87100        9.13300        4.67200
C          9.34800        7.88000        4.84400
H          8.73400        6.99400        4.96900
N         10.72700        7.90700        4.85300
H         11.31000        7.08300        5.00100
C         11.21400        9.18400        4.69400
C         12.51200        9.71300        4.65700
H         13.36500        9.05900        4.76500
C         12.68400       11.09000        4.43900
H         13.67900       11.51200        4.37900
C         11.55700       11.91600        4.27600
H         11.68900       12.97500        4.09900
C         10.25600       11.37600        4.34100
H          9.39900       12.02200        4.21800
C         10.04800        9.99400        4.55000
C          5.40800       10.46500        5.93100
O          4.77100       10.53800        4.88700
N          4.77300       10.52800        7.09300
H          5.31100       10.54700        7.94600
H          3.77500       10.64600        7.08800
