59
0 1
H          3.38000        7.01700        0.60100
C          4.26500        7.43200        1.08000
H          5.00000        6.64100        1.22300
H          3.99600        7.86900        2.03900
C          4.85100        8.49900        0.18800
O          4.30600        8.78300       -0.87300
N          5.96100        9.09700        0.62200
H          6.34800        8.79700        1.50400
C          6.65800       10.18500       -0.07300
H          6.52700       10.03900       -1.14500
C          5.97300       11.51500        0.31400
H          4.91700       11.41100        0.05900
H          6.03000       11.65400        1.39500
C          6.51200       12.77800       -0.39000
H          6.84700       12.52100       -1.39400
C          5.40100       13.82200       -0.52000
H          5.78200       14.71000       -1.02400
H          4.58200       13.41400       -1.11300
H          5.02800       14.09700        0.46700
C          7.66200       13.44500        0.37200
H          7.33100       13.73300        1.37000
H          8.51000       12.77200        0.46700
H          7.99100       14.33500       -0.16400
C          8.16000       10.15700        0.28400
O          8.47900       10.00600        1.46200
N          9.09700       10.29800       -0.67900
C         10.52100       10.39800       -0.38200
H         10.83600        9.62600        0.32200
H         10.73200       11.38500        0.03100
C         11.24800       10.22800       -1.71500
H         11.44000        9.17000       -1.90000
H         12.17700       10.79800       -1.74400
C         10.22600       10.75400       -2.72100
H         10.39700       10.35400       -3.72100
H         10.26400       11.84400       -2.74000
C          8.88500       10.30200       -2.13200
H          8.11900       11.02400       -2.41300
C          8.47400        8.92700       -2.68900
O          7.90400        8.85800       -3.77300
N          8.71600        7.84000       -1.94700
H          9.18100        7.96600       -1.06100
C          8.23400        6.49400       -2.27400
H          8.33700        6.34800       -3.35000
C          9.12900        5.45400       -1.57400
H         10.16600        5.63700       -1.85900
H          9.04900        5.58700       -0.49400
C          8.79600        3.99200       -1.90700
H          9.45800        3.36800       -1.30700
H          7.77600        3.76100       -1.60000
S          9.02600        3.50300       -3.64200
C          7.34400        3.70200       -4.29400
H          7.04900        4.74900       -4.26900
H          7.31500        3.35100       -5.32600
H          6.64700        3.11300       -3.69700
C          6.73900        6.35900       -1.92700
O          6.36100        5.75600       -0.93000
N          5.87500        6.98600       -2.71000
H          6.21800        7.55600       -3.47100
H          4.90900        7.03400       -2.42100
