61
0 1
H          4.26300       12.03000        2.82100
C          3.79100       11.07600        3.04700
H          2.74900       11.23300        3.31700
H          4.32100       10.60000        3.87300
C          3.86900       10.18100        1.83400
O          4.39500       10.58700        0.80500
N          3.33900        8.96600        1.97100
H          3.04400        8.73700        2.91100
C          3.36500        7.83600        1.02600
H          2.78000        7.04200        1.49000
C          2.67400        8.16100       -0.31900
H          3.19800        8.98300       -0.80600
H          2.81000        7.29100       -0.96400
C          1.16200        8.47400       -0.32200
H          0.85500        8.51900       -1.36800
C          0.33500        7.37500        0.34900
H          0.58500        6.40900       -0.08900
H          0.53100        7.35100        1.42000
H         -0.72500        7.56900        0.18700
C          0.78900        9.81800        0.30600
H          1.42500       10.60200       -0.10400
H         -0.25000       10.05100        0.07200
H          0.90400        9.78500        1.38800
C          4.75400        7.20100        0.83300
O          4.86300        5.98000        0.91000
N          5.82700        7.98500        0.67900
H          5.67600        8.98500        0.61500
C          7.20500        7.44900        0.69800
H          7.21600        6.59000        0.02500
C          8.22900        8.45900        0.13300
H          9.12600        7.90300       -0.14300
H          7.82900        8.89700       -0.78300
C          8.66400        9.58500        1.09000
H          9.13300        9.16700        1.98100
H          9.39500       10.21600        0.58400
C          7.48200       10.44400        1.50100
O          6.89400       10.34600        2.56800
O          7.01400       11.24200        0.52100
H          6.11200       11.48200        0.77300
C          7.63300        6.90500        2.07800
O          8.69700        6.30300        2.18900
N          6.82100        7.09400        3.12600
H          5.97600        7.62900        2.98600
C          7.02100        6.49100        4.45000
H          8.07300        6.59000        4.72000
C          6.18000        7.26100        5.48200
H          6.53700        7.00200        6.47900
H          6.33000        8.33300        5.34800
C          4.70100        6.95800        5.41700
N          3.78200        7.51400        4.52400
C          2.61400        6.89900        4.77200
H          1.69000        7.09600        4.24400
N          2.75500        5.99500        5.75500
H          2.02800        5.38900        6.10700
C          4.06600        6.01500        6.17100
H          4.53200        5.38100        6.91500
C          6.69500        4.98500        4.50000
O          6.91700        4.34200        5.51900
N          6.13900        4.39800        3.44500
H          5.92200        4.93700        2.61900
H          5.93900        3.41400        3.49600
