62
0 1
H          3.49200        9.97800       -2.15600
C          3.24000        8.91900       -2.15500
H          3.74500        8.41500       -2.97700
H          2.16300        8.80000       -2.26000
C          3.67500        8.30100       -0.84700
O          2.85000        7.77900       -0.10900
N          4.97500        8.36600       -0.56100
H          5.58800        8.82900       -1.21500
C          5.58900        7.82900        0.65700
H          4.86800        7.91500        1.47100
C          5.91500        6.33800        0.42400
H          5.01000        5.83000        0.08600
H          6.64800        6.27500       -0.38100
C          6.46500        5.57700        1.64500
H          7.34300        6.09100        2.03300
C          5.42800        5.45100        2.76000
H          5.83700        4.85700        3.57700
H          5.16700        6.43300        3.15000
H          4.52700        4.96600        2.38100
C          6.89000        4.17000        1.22900
H          7.32100        3.64700        2.08300
H          6.02700        3.61100        0.86500
H          7.63800        4.22400        0.43900
C          6.83500        8.64900        1.02300
O          7.58500        9.06500        0.14100
N          7.09600        8.84700        2.31900
H          6.48700        8.42400        3.00900
C          8.24900        9.61100        2.83200
H          8.23600       10.61200        2.39900
C          8.11500        9.72900        4.35700
H          8.91800       10.36300        4.73600
H          7.16700       10.21300        4.59800
C          8.16700        8.39500        5.06300
N          7.19600        7.39800        4.96500
C          7.64100        6.37400        5.70800
H          7.11400        5.43800        5.84200
N          8.83700        6.67100        6.24700
H          9.38000        6.05500        6.83700
C          9.18800        7.94200        5.84600
H         10.09500        8.48000        6.08700
C          9.61300        8.99600        2.47900
O         10.62600        9.68400        2.53000
N          9.64200        7.71100        2.11800
H          8.76800        7.21300        2.14600
C         10.83200        6.98900        1.65100
H         11.69200        7.32900        2.23000
C         10.64900        5.48300        1.90800
H          9.80200        5.12000        1.32500
H         11.54400        4.95600        1.57800
C         10.41000        5.16700        3.39100
H         11.28200        5.48300        3.96400
H          9.55500        5.74700        3.73500
S         10.05400        3.43100        3.77500
C         11.63800        2.65300        3.35600
H         12.44100        3.12500        3.92200
H         11.59700        1.59300        3.60600
H         11.83300        2.75900        2.28900
C         11.17500        7.25100        0.16900
O         12.15000        6.71400       -0.34100
N         10.39200        8.03800       -0.56100
H         10.64400        8.20000       -1.52100
H          9.58100        8.48100       -0.15200
