64
0 1
H          2.99300       10.34200        3.04400
C          3.96100       10.84000        3.04300
H          3.87400       11.82400        3.50000
H          4.31500       10.94500        2.01800
C          4.95300       10.01000        3.82000
O          5.95600        9.57100        3.27100
N          4.67000        9.78600        5.10400
H          3.81300       10.16800        5.47000
C          5.50400        8.99500        6.01700
H          6.55200        9.23000        5.82000
C          5.20400        9.36900        7.48600
H          4.13700        9.25600        7.68600
H          5.72700        8.63900        8.10700
C          5.67400       10.76900        7.93300
H          6.67900       10.94900        7.55200
C          4.76000       11.90800        7.47200
H          3.73000       11.70600        7.76500
H          5.08200       12.84500        7.92800
H          4.82300       12.03100        6.39300
C          5.73300       10.82000        9.46100
H          6.10100       11.79200        9.78800
H          4.73900       10.65300        9.87800
H          6.40900       10.05000        9.83300
C          5.34700        7.48300        5.75000
O          4.81900        6.74100        6.57600
N          5.79400        7.02700        4.57600
H          6.16400        7.71600        3.92900
C          5.70800        5.62900        4.12600
H          4.65800        5.33300        4.14800
C          6.20800        5.58700        2.66700
H          5.61200        6.28600        2.07900
H          7.24200        5.93700        2.65100
C          6.16200        4.20800        1.97800
H          6.80000        3.50500        2.51200
C          4.74200        3.64200        1.89900
H          4.75100        2.70400        1.34400
H          4.37200        3.43300        2.90300
H          4.07900        4.35000        1.40500
C          6.69600        4.33800        0.55100
H          7.71700        4.71800        0.57400
H          6.70000        3.36000        0.07000
H          6.07000        5.02000       -0.02500
C          6.46900        4.64300        5.03900
O          6.15200        3.45900        5.07500
N          7.44500        5.13400        5.80600
H          7.64800        6.12300        5.73500
C          8.17100        4.39200        6.84300
H          8.39900        3.39200        6.46900
C          9.48900        5.13100        7.11300
H         10.07800        4.56500        7.83500
H         10.06300        5.18300        6.18800
C          9.29000        6.53600        7.63100
N          8.89300        7.63600        6.86400
C          8.84900        8.67300        7.71200
H          8.60600        9.68700        7.42400
N          9.16000        8.27900        8.95900
H          9.20100        8.87700        9.77200
C          9.43800        6.93100        8.92700
H          9.71700        6.29400        9.75600
C          7.38300        4.19800        8.15400
O          7.89600        3.60500        9.09600
N          6.16200        4.70300        8.27500
H          5.74300        5.21700        7.51200
H          5.66600        4.55600        9.13700
