76
0 1
H         13.31200        7.39900        0.40800
C         13.17000        8.41500        0.04800
H         12.54700        8.40900       -0.84300
H         14.13900        8.85600       -0.18200
C         12.49700        9.24600        1.11300
O         12.90400       10.37200        1.35800
N         11.47400        8.68000        1.75500
H         11.24200        7.73600        1.49400
C         10.52300        9.37700        2.64300
H         10.17400       10.26500        2.11400
C          9.30400        8.45900        2.89100
H          9.65000        7.45200        3.12800
H          8.77200        8.82900        3.76800
C          8.27000        8.40000        1.74700
H          7.90600        9.40700        1.54500
C          8.80000        7.80300        0.44100
H          9.53000        8.47800       -0.00500
H          9.25000        6.82800        0.62600
H          7.98100        7.69000       -0.27000
C          7.08000        7.54700        2.19200
H          6.31500        7.54400        1.41600
H          7.40100        6.52400        2.38700
H          6.64600        7.96600        3.10100
C         11.11700        9.90900        3.97200
O         10.38800       10.44700        4.80100
N         12.42700        9.77100        4.18700
H         12.96500        9.32100        3.46100
C         13.18100       10.50600        5.21300
H         12.58100       10.59200        6.12000
C         14.45800        9.71900        5.53400
H         15.06500       10.29500        6.23600
H         14.17300        8.79500        6.03900
C         15.29800        9.35800        4.34300
C         16.26300       10.13100        3.79700
H         16.56400       11.10300        4.17100
N         16.78000        9.50700        2.67800
H         17.50400        9.91300        2.10200
C         16.17600        8.29000        2.45000
C         16.35300        7.29900        1.47400
H         17.09600        7.42200        0.70000
C         15.56100        6.13900        1.52600
H         15.69400        5.35700        0.78900
C         14.59500        5.99300        2.53900
H         13.99300        5.09500        2.58000
C         14.42000        7.00000        3.51000
H         13.68900        6.87000        4.29400
C         15.21300        8.16900        3.49600
C         13.54700       11.93700        4.77400
O         13.81600       12.78100        5.62600
N         13.56500       12.19900        3.46000
H         13.30500       11.43000        2.85300
C         13.83800       13.46500        2.75500
H         13.77900       13.22900        1.69200
C         12.71200       14.47300        3.02900
H         12.88500       14.92700        4.00600
H         12.76900       15.26900        2.28500
C         11.32200       13.90500        3.01300
C         10.53700       13.75500        4.10300
H         10.82600       14.02700        5.11100
N          9.34800       13.15600        3.74200
H          8.65800       12.85800        4.41600
C          9.30700       12.88100        2.39400
C          8.34800       12.26800        1.57400
H          7.40900       11.93700        1.99000
C          8.63200       12.08600        0.20900
H          7.90500       11.61700       -0.43900
C          9.86600       12.51600       -0.31100
H         10.08500       12.37200       -1.36000
C         10.81900       13.13500        0.52300
H         11.76600       13.45300        0.11300
C         10.56500       13.33900        1.89700
C         15.23300       14.08700        2.94700
O         15.81000       14.60500        1.99900
N         15.83100       14.02900        4.12800
H         15.32500       13.64000        4.91400
H         16.73500       14.45600        4.23300
