58
0 1
H         12.01500        5.36500       10.99000
C         11.09800        5.94000       11.10100
H         11.04600        6.35900       12.10500
H         10.23100        5.30300       10.93300
C         11.08000        7.06700       10.09700
O         10.93200        8.22500       10.47500
N         11.22600        6.72700        8.81600
H         11.31000        5.74700        8.59900
C         11.16000        7.66700        7.68900
H         11.35400        8.67800        8.04800
C         12.24600        7.31500        6.65100
H         12.05200        6.31100        6.27000
H         12.15500        8.00900        5.81400
C         13.69500        7.36400        7.17500
H         13.81500        6.64400        7.98500
C         14.65700        6.97900        6.05100
H         14.41400        5.98200        5.68300
H         14.58100        7.69300        5.23000
H         15.68000        6.97300        6.42700
C         14.09200        8.75100        7.68600
H         13.92800        9.49900        6.91000
H         13.50500        9.00700        8.56800
H         15.14500        8.75200        7.97000
C          9.74800        7.67500        7.08000
O          9.44300        6.91200        6.16500
N          8.86700        8.51800        7.62000
H          9.18200        9.11900        8.36800
C          7.47300        8.64100        7.17800
H          7.04800        7.64000        7.15500
C          6.66200        9.47700        8.19000
H          7.17300       10.42400        8.37000
H          5.69200        9.71100        7.74900
C          6.39800        8.76100        9.53200
H          5.79400        9.41800       10.15900
H          5.83100        7.84900        9.34700
C          7.66200        8.40100       10.30900
O          7.94400        7.27400       10.68600
O          8.54200        9.41400       10.46200
H          9.37000        9.01600       10.78700
C          7.39300        9.25600        5.76100
O          8.20600       10.12600        5.44700
N          6.41600        8.86900        4.90900
C          6.17900        9.55000        3.64300
H          6.67700        9.00600        2.83900
H          6.52400       10.58500        3.66200
C          4.66900        9.51000        3.44600
H          4.39300        9.60200        2.39500
H          4.19600       10.29100        4.04400
C          4.32000        8.13600        4.01000
H          4.49500        7.38200        3.24000
H          3.28400        8.09200        4.34900
C          5.30300        7.94300        5.17600
H          4.80600        8.25100        6.09500
C          5.66400        6.45200        5.30500
O          4.82400        5.65900        5.70600
N          6.88200        6.03200        4.99100
H          7.09300        5.05500        5.10900
H          7.60800        6.68300        4.73400
