73
0 1
H          6.72900        0.02200       -4.43100
C          6.13100       -0.62400       -3.78800
H          6.51200       -0.58100       -2.77000
H          6.17900       -1.64500       -4.16100
C          4.69700       -0.15000       -3.81200
O          4.39000        0.85000       -4.44900
N          3.82500       -0.86000       -3.09400
H          4.17800       -1.65900       -2.59300
C          2.36600       -0.66100       -3.11200
H          1.99800       -0.92500       -4.10400
C          1.75000       -1.64100       -2.09100
H          2.03500       -2.64600       -2.40600
H          2.19200       -1.47200       -1.10700
C          0.21000       -1.58100       -1.97000
H         -0.22300       -1.26500       -2.91900
C         -0.33900       -2.97100       -1.63800
H          0.07800       -3.32600       -0.69500
H         -1.42500       -2.92700       -1.55600
H         -0.08400       -3.66900       -2.43500
C         -0.25500       -0.64100       -0.85300
H          0.16600       -0.95000        0.10400
H          0.04600        0.38300       -1.06200
H         -1.34300       -0.66100       -0.78700
C          1.93400        0.79500       -2.86200
O          1.00800        1.27600       -3.50700
N          2.62400        1.50400       -1.96600
H          3.37700        1.04600       -1.47900
C          2.31400        2.88800       -1.58200
H          1.25100        2.94000       -1.34600
C          3.10200        3.23400       -0.30900
H          4.14200        3.41400       -0.58300
H          2.70900        4.16300        0.10800
C          3.05300        2.15800        0.76400
C          1.82100        1.79300        1.33900
H          0.91400        2.30400        1.04600
C          1.76600        0.75600        2.29100
H          0.82600        0.46800        2.73700
C          2.94600        0.08700        2.67400
O          2.88600       -0.91100        3.59400
H          3.75400       -1.18500        3.88800
C          4.18300        0.45400        2.10100
H          5.08800       -0.05400        2.39500
C          4.23300        1.48700        1.14400
H          5.17900        1.77200        0.70500
C          2.56700        3.93100       -2.68700
O          2.20000        5.09200       -2.51700
N          3.17000        3.52700       -3.81100
H          3.46500        2.56000       -3.87000
C          3.49600        4.39000       -4.95400
H          2.96500        5.33500       -4.83400
C          5.00000        4.70600       -4.94800
H          5.54000        3.81800       -5.28000
H          5.19700        5.49800       -5.67100
C          5.56200        5.11700       -3.61700
C          5.48200        6.35500       -3.08100
H          5.02000        7.20500       -3.56800
N          6.02600        6.35000       -1.81100
H          6.04800        7.16500       -1.21700
C          6.47300        5.09600       -1.45500
C          7.07300        4.58500       -0.29500
H          7.27100        5.23300        0.54500
C          7.42100        3.22400       -0.24800
H          7.89900        2.81800        0.63400
C          7.15500        2.39300       -1.35200
H          7.43700        1.35100       -1.31700
C          6.54300        2.91800       -2.50800
H          6.35000        2.28500       -3.36000
C          6.19000        4.28300       -2.59300
C          3.01900        3.80900       -6.29900
O          3.38100        4.30100       -7.36100
N          2.20400        2.76000       -6.29300
H          1.90400        2.38300       -7.17600
H          1.89600        2.36400       -5.41700
