61
0 1
H          5.52600        6.40600       -0.12900
C          5.83600        5.65100        0.59300
H          5.71000        4.65600        0.17100
H          5.23000        5.74200        1.49400
C          7.28600        5.87300        0.95000
O          7.59700        6.26200        2.06900
N          8.18300        5.64800       -0.01000
H          7.84200        5.35600       -0.91200
C          9.64000        5.74100        0.19100
H          9.90700        5.12200        1.04900
C         10.36700        5.19500       -1.05500
H         10.12300        5.83600       -1.90400
H         11.44300        5.27000       -0.88500
C         10.04000        3.73600       -1.43100
H          8.97300        3.64400       -1.63800
C         10.80300        3.35000       -2.69800
H         10.54600        2.33200       -2.98900
H         10.53300        4.02300       -3.51200
H         11.87700        3.41200       -2.52300
C         10.41500        2.74600       -0.32700
H         11.46900        2.85300       -0.07100
H          9.80800        2.92500        0.55900
H         10.23000        1.72700       -0.66700
C         10.14500        7.15900        0.53100
O         11.29100        7.31700        0.93900
N          9.30300        8.18300        0.37300
H          8.37100        7.97400        0.03500
C          9.58200        9.58400        0.70300
H         10.64700        9.68200        0.92200
C          9.28100       10.44300       -0.55000
H         10.00000       11.26400       -0.56200
H          9.47700        9.85000       -1.44500
C          7.87700       11.08100       -0.67900
H          7.82100       11.92800        0.00600
H          7.77000       11.48700       -1.68400
C          6.67000       10.17900       -0.40300
O          6.68300        8.95200       -0.37200
O          5.53500       10.86800       -0.16300
H          4.83300       10.27000        0.14300
C          8.82400       10.07900        1.95400
O          8.92500       11.25000        2.30700
N          7.97600        9.23800        2.55900
H          7.99100        8.26200        2.28000
C          6.75500        9.71000        3.22500
H          6.35900       10.50700        2.59600
C          5.74000        8.54800        3.22300
H          5.73400        8.10700        2.22700
H          6.06200        7.78400        3.93200
C          4.29000        8.94200        3.53400
H          3.64600        8.07700        3.38000
H          4.19700        9.24400        4.57700
C          3.82100       10.06500        2.61900
O          3.56500        9.87400        1.44000
N          3.78900       11.28700        3.10000
H          3.52600       12.02200        2.46900
H          4.15600       11.46400        4.02700
C          6.94100       10.34100        4.61900
O          6.01400       10.94900        5.14900
N          8.11400       10.23400        5.22900
H          8.87700        9.77800        4.75700
H          8.23200       10.67400        6.12600
