58
0 1
H          7.47500        9.83500        2.19600
C          6.80500       10.49000        1.64000
H          7.38600       11.13000        0.97800
H          6.23000       11.09900        2.33400
C          5.86200        9.65000        0.81300
O          5.96200        8.42700        0.82600
N          4.96300       10.31000        0.08900
H          5.02700       11.31600        0.07800
C          4.02600        9.71800       -0.87300
H          4.24200        8.65600       -0.98600
C          2.57300        9.91000       -0.37200
H          2.44900       10.94500       -0.04800
H          1.89900        9.78400       -1.21800
C          2.04700        8.98200        0.74400
H          0.97400        9.16500        0.81700
C          2.23400        7.49900        0.41800
H          3.29200        7.23500        0.43500
H          1.71600        6.89700        1.16500
H          1.81200        7.27500       -0.56100
C          2.63500        9.26400        2.12600
H          3.66800        8.93000        2.17900
H          2.58200       10.33100        2.34200
H          2.06100        8.72400        2.87900
C          4.22800       10.37900       -2.25500
O          4.67000       11.52800       -2.30200
N          3.86800        9.72300       -3.38100
C          3.93200       10.36800       -4.68900
H          4.96700       10.53200       -4.99300
H          3.40300       11.32200       -4.64800
C          3.22500        9.43600       -5.67300
H          3.95300        8.77500       -6.14500
H          2.66500        9.99300       -6.42500
C          2.30200        8.62600       -4.76300
H          2.00900        7.68000       -5.22100
H          1.41600        9.21600       -4.52200
C          3.15500        8.44200       -3.50200
H          2.49100        8.27900       -2.65800
C          4.04900        7.19400       -3.63400
O          3.52500        6.09700       -3.78400
N          5.37700        7.33000       -3.60800
H          5.75400        8.24600       -3.39000
C          6.34500        6.27700       -3.97200
H          6.02100        5.87800       -4.93400
C          7.73500        6.92200       -4.19400
H          8.31400        6.26500       -4.84500
H          7.60700        7.86800       -4.72300
C          8.57200        7.16900       -2.92100
H          8.92800        6.21300       -2.53600
H          9.44800        7.76400       -3.17700
C          7.79900        7.89300       -1.82400
O          7.10800        8.88800       -2.00700
O          7.87100        7.30900       -0.61200
H          7.22200        7.75200       -0.03200
C          6.42600        5.05700       -3.02100
O          7.26700        4.18800       -3.21100
N          5.60800        4.96800       -1.98000
H          5.69400        4.17100       -1.37300
H          4.87200        5.64400       -1.86400
