69
0 1
H          9.20700        7.62800        2.10800
C          8.15900        7.49900        2.37300
H          7.54800        8.17800        1.77800
H          8.01300        7.70800        3.43000
C          7.74100        6.08100        2.07300
O          6.88700        5.85700        1.22700
N          8.31500        5.11600        2.79400
H          9.00500        5.39000        3.47300
C          8.11100        3.67100        2.56800
H          8.32000        3.46400        1.51700
C          9.11100        2.87100        3.42900
H          8.88000        3.05000        4.48000
H          8.95600        1.80700        3.23600
C         10.60100        3.18800        3.19000
H         10.78800        4.23900        3.41100
C         11.46100        2.34500        4.13200
H         12.51400        2.59400        3.99200
H         11.18800        2.55000        5.16700
H         11.31400        1.28400        3.92500
C         11.04100        2.90100        1.75400
H         12.11300        3.07300        1.65400
H         10.81900        1.86500        1.49400
H         10.52400        3.56400        1.06100
C          6.66800        3.16600        2.79800
O          6.37900        2.00400        2.53500
N          5.75800        4.02500        3.26400
H          6.05000        4.97700        3.40700
C          4.31400        3.76400        3.30100
H          4.13400        2.76300        3.69400
C          3.67200        4.79400        4.24500
H          2.59500        4.62100        4.26900
H          4.04900        4.62100        5.25400
C          3.91400        6.23200        3.87900
C          4.84900        7.03600        4.43600
H          5.50800        6.74700        5.24600
N          4.83900        8.26500        3.80700
H          5.43700        9.03600        4.06700
C          3.89500        8.31500        2.80400
C          3.52600        9.31000        1.88700
H          4.03900       10.26000        1.87200
C          2.48200        9.05200        0.98300
H          2.19000        9.80200        0.26000
C          1.81000        7.81700        1.02300
H          1.00000        7.62700        0.33200
C          2.19000        6.82600        1.94900
H          1.66500        5.88100        1.96500
C          3.25600        7.04000        2.85100
C          3.66000        3.82700        1.90700
O          2.56500        3.29800        1.72600
N          4.30100        4.47200        0.92400
H          5.20200        4.88500        1.13700
C          3.75400        4.74700       -0.41200
H          2.69100        4.95300       -0.28800
C          4.40700        6.03300       -0.95400
H          4.46600        6.76600       -0.14800
H          5.42200        5.81100       -1.28400
C          3.61100        6.67100       -2.10000
H          3.57600        5.98800       -2.94800
H          2.58900        6.83000       -1.75500
S          4.25500        8.26800       -2.67500
C          5.79700        7.72800       -3.46000
H          5.57800        6.97100       -4.21500
H          6.28000        8.58200       -3.93500
H          6.46700        7.30900       -2.71000
C          3.85200        3.53600       -1.36700
O          4.27600        3.64100       -2.51300
N          3.50100        2.34500       -0.90200
H          3.14400        2.27100        0.04100
H          3.58500        1.54600       -1.50600
