63
0 1
H          2.64100        0.98900       -6.02300
C          1.97300        1.84900       -5.99600
H          1.14800        1.64700       -5.31400
H          1.59100        2.04700       -6.99500
C          2.74200        3.05100       -5.50400
O          3.92700        2.94800       -5.21200
N          2.06800        4.19700       -5.41400
H          1.08600        4.19000       -5.63000
C          2.63700        5.42100       -4.84400
H          3.65500        5.52600       -5.22200
C          1.80800        6.62700       -5.33900
H          1.77600        6.57500       -6.42800
H          0.78200        6.51600       -4.98400
C          2.29300        8.04700       -4.97400
H          1.70700        8.73700       -5.58100
C          2.06100        8.44500       -3.51500
H          2.19800        9.52100       -3.41000
H          1.04200        8.19200       -3.22000
H          2.76300        7.94500       -2.85300
C          3.76600        8.27500       -5.31900
H          4.00900        9.32900       -5.19000
H          4.41100        7.68700       -4.66800
H          3.94800        7.99900       -6.35800
C          2.70200        5.31000       -3.31300
O          1.68100        5.11000       -2.65700
N          3.89600        5.48000       -2.74600
H          4.69800        5.63600       -3.34100
C          4.15200        5.47700       -1.30300
H          3.25100        5.81900       -0.79300
C          4.45200        4.03500       -0.84500
H          4.27100        3.95900        0.22600
H          3.74500        3.35200       -1.32000
C          5.86500        3.55600       -1.12300
C          6.84700        3.62700       -0.11400
H          6.59800        4.00600        0.86800
C          8.16600        3.21300       -0.38300
H          8.92500        3.26800        0.38300
C          8.50500        2.72400       -1.66100
O          9.78100        2.33400       -1.91800
H          9.87200        1.98000       -2.80200
C          7.52000        2.64300       -2.66900
H          7.77100        2.26700       -3.64900
C          6.20300        3.05800       -2.39700
H          5.44800        2.99600       -3.17000
C          5.30500        6.45000       -0.96800
O          6.07200        6.80600       -1.86800
N          5.45900        6.89900        0.29500
C          4.54000        6.69500        1.40900
H          4.32000        5.64100        1.57100
H          3.61700        7.24600        1.22100
C          5.23500        7.26600        2.64500
H          5.83200        6.48800        3.12400
H          4.52100        7.69000        3.35100
C          6.15500        8.33500        2.05600
H          6.99500        8.56100        2.71400
H          5.57800        9.24100        1.86400
C          6.59400        7.72100        0.72000
H          6.76200        8.52500        0.00300
C          7.88400        6.88300        0.81700
O          8.30800        6.46500        1.88800
N          8.51800        6.59600       -0.31000
H          8.09800        6.85500       -1.19200
H          9.33700        6.01300       -0.26800
