61
0 1
H          8.40400       12.49600        0.84500
C          8.39300       11.48700        0.43800
H          9.38500       11.22100        0.07700
H          7.68400       11.42600       -0.38700
C          7.98700       10.51300        1.51700
O          8.76900        9.64900        1.89900
N          6.75500       10.64300        2.01200
H          6.15800       11.34000        1.59600
C          6.24400        9.88600        3.16900
H          6.88500       10.09200        4.02600
C          4.81200       10.35400        3.49800
H          4.17100       10.12100        2.64600
H          4.45100        9.77400        4.34900
C          4.66000       11.85100        3.83100
H          4.98900       12.44800        2.98000
C          3.18900       12.17000        4.09600
H          3.07300       13.23500        4.29600
H          2.59200       11.91200        3.22200
H          2.83100       11.60300        4.95600
C          5.46900       12.26300        5.06300
H          5.19000       11.64500        5.91700
H          6.53400       12.15100        4.86800
H          5.27300       13.30900        5.29900
C          6.27200        8.35700        2.98200
O          6.33100        7.62500        3.96200
N          6.27800        7.87600        1.73700
H          6.18700        8.54400        0.98100
C          6.41700        6.45800        1.38900
H          5.66600        5.90300        1.95200
C          6.11800        6.26600       -0.11300
H          6.05100        5.19400       -0.30200
H          5.14200        6.69300       -0.34600
C          7.17800        6.84300       -1.07800
H          8.16600        6.47400       -0.80800
H          6.96300        6.47600       -2.08100
C          7.19300        8.37100       -1.15000
O          6.23600        9.08400       -0.86400
O          8.36300        8.91000       -1.56100
H          9.10100        8.28900       -1.43100
C          7.78300        5.83500        1.74900
O          7.88800        4.61100        1.75300
N          8.83400        6.63200        1.99700
H          8.70500        7.63600        1.95000
C         10.17900        6.10800        2.30500
H         10.05700        5.17300        2.85500
C         10.92500        5.77600        0.99900
H         11.80300        5.17800        1.24600
H         10.28700        5.15900        0.36400
C         11.38400        6.97500        0.20500
N         10.68600        7.59500       -0.83700
C         11.46500        8.61600       -1.23700
H         11.21600        9.30500       -2.03400
N         12.59000        8.66900       -0.50400
H         13.32700        9.35200       -0.60700
C         12.55600        7.64200        0.40900
H         13.29800        7.40200        1.16100
C         11.03900        7.00300        3.21700
O         12.14500        6.62400        3.58300
N         10.58800        8.18800        3.60100
H          9.71600        8.54500        3.24000
H         11.17000        8.74600        4.20100
