62
0 1
H          9.51700       10.86500        4.50000
C          8.57600       11.19100        4.93700
H          8.75900       11.62200        5.92000
H          7.89800       10.34400        5.02800
C          7.94800       12.23500        4.04500
O          6.83200       12.04700        3.57300
N          8.67200       13.32800        3.80900
H          9.60100       13.34900        4.20600
C          8.23300       14.45100        2.96000
H          7.47800       14.07200        2.27000
C          7.53000       15.52300        3.82200
H          7.25000       16.35600        3.17600
H          6.60300       15.07800        4.18600
C          8.29200       16.07600        5.04500
H          8.54600       15.25600        5.71800
C          9.57400       16.83100        4.68900
H          9.96400       17.33700        5.57300
H         10.33500       16.13600        4.34500
H          9.37100       17.57100        3.91400
C          7.38000       17.04200        5.80300
H          7.88300       17.40000        6.70100
H          7.12500       17.89200        5.17000
H          6.46500       16.52900        6.10100
C          9.32700       15.02800        2.04000
O          9.04100       15.85000        1.17300
N         10.57100       14.56600        2.17800
H         10.72600       13.84900        2.87500
C         11.72700       14.96900        1.36800
H         11.78200       16.05900        1.38800
C         13.01600       14.42100        2.01900
H         13.86400       14.91700        1.54400
H         13.02900       14.70300        3.07300
C         13.24800       12.89800        1.90400
H         13.31500       12.62900        0.85000
H         14.20800       12.65700        2.36100
C         12.18000       12.03500        2.57800
O         11.59400       12.38300        3.59400
N         11.85100       10.89800        2.01300
H         12.27500       10.61100        1.15200
H         11.03400       10.44100        2.38100
C         11.61300       14.56400       -0.11500
O         12.33900       15.09000       -0.95100
N         10.69900       13.64700       -0.44900
H         10.17400       13.21100        0.30100
C         10.32500       13.29300       -1.82300
H         11.24000       13.26500       -2.41600
C          9.71800       11.87200       -1.84500
H          9.70200       11.54800       -2.88700
H         10.38100       11.18700       -1.31400
C          8.28000       11.72100       -1.30100
H          7.63100       12.46800       -1.75700
H          7.90700       10.74500       -1.61100
C          8.13500       11.79400        0.21900
O          9.09300       11.83300        0.97600
N          6.92300       11.81900        0.72400
H          6.84300       11.85500        1.73900
H          6.11300       11.79100        0.13600
C          9.40300       14.32700       -2.50700
O          9.02900       14.15000       -3.66000
N          8.98100       15.39000       -1.83100
H          8.38800       16.05200       -2.30300
H          9.25800       15.53500       -0.86900
