69
0 1
H          6.91900       16.02200        6.07400
C          6.10700       15.91300        5.35700
H          6.12100       14.90700        4.94600
H          6.22300       16.64000        4.55600
C          4.79600       16.16000        6.06200
O          4.77800       16.73100        7.14400
N          3.69200       15.72300        5.45400
H          3.80400       15.24400        4.57500
C          2.32300       16.04000        5.90200
H          2.21700       17.12500        5.93100
C          1.30600       15.47200        4.89300
H          1.39800       14.38500        4.88600
H          0.30200       15.71400        5.24700
C          1.44500       15.98600        3.44600
H          2.43200       15.72900        3.06300
C          0.40000       15.30900        2.56000
H         -0.60400       15.56000        2.90400
H          0.51800       15.64200        1.52900
H          0.53000       14.22700        2.59400
C          1.25400       17.50000        3.34000
H          1.29100       17.80400        2.29400
H          0.29000       17.78700        3.76200
H          2.05000       18.01800        3.87300
C          1.98600       15.55300        7.32600
O          1.09500       16.10600        7.96300
N          2.71800       14.56600        7.84900
H          3.47400       14.19600        7.29500
C          2.62100       14.11400        9.24500
H          1.58600       13.85000        9.46800
C          3.49700       12.86700        9.41500
H          3.48000       12.55900       10.46200
H          3.05700       12.05500        8.83500
C          4.92300       13.03400        8.98000
C          5.91700       13.55200        9.73600
H          5.80300       13.89100       10.76100
N          7.08200       13.60800        8.99600
H          7.95300       13.96600        9.36300
C          6.89700       13.12300        7.71900
C          7.75400       12.96200        6.62100
H          8.79400       13.24100        6.69500
C          7.24400       12.41700        5.42900
H          7.89400       12.27100        4.57800
C          5.88600       12.05700        5.34800
H          5.50100       11.62700        4.43300
C          5.03200       12.22900        6.45700
H          3.99900       11.92100        6.39100
C          5.51800       12.75800        7.67400
C          3.03400       15.18700       10.27000
O          2.68400       15.06800       11.43900
N          3.75900       16.23100        9.85100
H          4.04400       16.26000        8.87800
C          4.11800       17.38200       10.68800
H          4.39400       17.00700       11.67500
C          5.35000       18.06400       10.06200
H          6.02800       17.30300        9.67300
H          5.02500       18.68500        9.22600
C          6.14400       18.92900       11.04800
H          6.87800       19.50300       10.48200
H          5.47600       19.63700       11.53500
S          7.03400       17.98200       12.31500
C          7.58900       19.34700       13.36800
H          8.21900       20.02400       12.79100
H          6.72300       19.89000       13.74700
H          8.16000       18.94900       14.20700
C          2.94700       18.37100       10.89300
O          3.05400       19.32800       11.65000
N          1.81300       18.19000       10.22400
H          1.05800       18.83500       10.38300
H          1.70500       17.40200        9.60100
