63
0 1
H         10.88800       10.62500        0.86000
C         11.04200       10.14800       -0.10600
H         11.16100        9.07400        0.03300
H         11.92900       10.55600       -0.58600
C          9.83800       10.39900       -0.98100
O          9.19600        9.45300       -1.42200
N          9.53800       11.67700       -1.21900
H         10.11100       12.35900       -0.74500
C          8.34800       12.21400       -1.90500
H          8.45500       13.29900       -1.88200
C          8.36200       11.81300       -3.39700
H          9.33400       12.10900       -3.79500
H          8.28900       10.72900       -3.49600
C          7.25900       12.47300       -4.25100
H          7.04300       13.46900       -3.86400
C          7.73900       12.62000       -5.69600
H          7.97500       11.64100       -6.11400
H          6.96400       13.09300       -6.29900
H          8.63000       13.24800       -5.72700
C          5.96400       11.65400       -4.29100
H          6.16600       10.65000       -4.66500
H          5.52100       11.58500       -3.30100
H          5.24200       12.14000       -4.94700
C          7.02200       11.93500       -1.17400
O          6.25800       12.87200       -0.94100
N          6.76200       10.69200       -0.76400
H          7.45500        9.98300       -0.98900
C          5.65200       10.29900        0.10600
H          4.87300       11.05900        0.04400
C          5.06500        8.97500       -0.42100
H          4.71300        9.13500       -1.44100
H          5.86400        8.23200       -0.45600
C          3.90800        8.39900        0.42000
H          4.25600        8.18000        1.42900
C          2.71800        9.35700        0.51100
H          1.89900        8.87500        1.04500
H          2.99700       10.25500        1.06100
H          2.38100        9.63200       -0.48800
C          3.41900        7.09400       -0.20900
H          3.03900        7.27900       -1.21400
H          4.24400        6.38300       -0.26200
H          2.62700        6.66200        0.40300
C          6.12500       10.21700        1.56900
O          6.67000        9.20700        2.00500
N          5.91100       11.28600        2.33900
H          5.48800       12.09800        1.90900
C          6.32600       11.40900        3.74600
H          7.29800       10.92500        3.85400
C          6.50600       12.89800        4.12400
H          5.58700       13.44500        3.90700
H          6.67600       12.96000        5.20000
C          7.70700       13.59500        3.44900
H          7.77500       14.60800        3.84400
H          8.62200       13.06500        3.71200
C          7.62400       13.69800        1.92700
O          8.53900       13.41200        1.16600
O          6.41500       14.05300        1.44100
H          6.44000       13.90700        0.47800
C          5.37100       10.65800        4.70300
O          4.83500       11.21900        5.65100
N          5.10700        9.38200        4.45400
H          4.47900        8.89000        5.06700
H          5.56200        8.92600        3.67400
