66
0 1
H          2.20500       12.22900       -2.13900
C          3.10700       11.62300       -2.20900
H          3.73400       11.80400       -1.33700
H          3.66000       11.87800       -3.11100
C          2.73200       10.16100       -2.25000
O          3.17900        9.39000       -1.41000
N          1.91600        9.78500       -3.23500
H          1.58600       10.49900       -3.86500
C          1.49000        8.39600       -3.48600
H          1.57600        7.84500       -2.54700
C         -0.00700        8.37000       -3.86800
H         -0.29300        7.33600       -4.07000
H         -0.56700        8.68500       -2.98700
C         -0.46400        9.25000       -5.05200
H         -0.23500       10.29300       -4.83300
C          0.17900        8.88400       -6.39100
H          1.23200        9.15600       -6.38800
H          0.07800        7.81300       -6.57200
H         -0.30500        9.43200       -7.19900
C         -1.98000        9.12400       -5.21200
H         -2.32600        9.78500       -6.00600
H         -2.24500        8.09600       -5.45900
H         -2.47500        9.40900       -4.28300
C          2.38900        7.62100       -4.47400
O          2.11700        6.46300       -4.78000
N          3.44300        8.25500       -4.99600
H          3.64900        9.18900       -4.67100
C          4.45100        7.64000       -5.86500
H          4.66100        6.64100       -5.47900
C          3.92500        7.50600       -7.30500
H          2.85800        7.28100       -7.28400
H          4.05400        8.45100       -7.83400
C          4.60500        6.40100       -8.07700
N          5.88700        6.45000       -8.63200
C          6.09900        5.24400       -9.17900
H          7.00200        4.95600       -9.70200
N          5.03700        4.44400       -8.97900
H          4.95600        3.48600       -9.29100
C          4.08800        5.15500       -8.27900
H          3.12300        4.80500       -7.93500
C          5.75800        8.44200       -5.81000
O          5.75800        9.59900       -5.38800
N          6.86500        7.81700       -6.21700
H          6.74500        6.91900       -6.66400
C          8.23400        8.24000       -5.88700
H          8.20600        9.29000       -5.59300
C          8.72800        7.42900       -4.67000
H          9.04100        6.44200       -5.01100
H          9.60300        7.92300       -4.24500
C          7.67600        7.26200       -3.58300
C          7.01200        6.02800       -3.42500
H          7.32200        5.16700       -4.00100
C          5.91300        5.92500       -2.55100
H          5.37700        4.99500       -2.44100
C          5.47300        7.05800       -1.83600
O          4.36200        6.97900       -1.06100
H          3.93200        7.84900       -0.99600
C          6.15800        8.28300       -1.96800
H          5.81800        9.14900       -1.42100
C          7.26100        8.38200       -2.83800
H          7.75100        9.33600       -2.97800
C          9.21100        8.15300       -7.07500
O         10.40900        8.35000       -6.92000
N          8.73900        7.84500       -8.27800
H          9.38700        7.80400       -9.04600
H          7.75000        7.68000       -8.40900
