59
0 1
H          3.05400        5.04800       -6.48000
C          2.63500        5.93200       -6.00200
H          2.82500        5.89100       -4.93000
H          1.56300        5.97600       -6.18300
C          3.28800        7.16600       -6.57600
O          3.87900        7.94400       -5.83300
N          3.16600        7.33800       -7.89100
H          2.63100        6.65800       -8.41200
C          3.68100        8.47300       -8.66400
H          3.74600        9.32700       -7.99900
C          5.10000        8.11900       -9.15500
H          5.69300        7.76000       -8.31200
H          5.01100        7.29800       -9.86900
C          5.85600        9.27900       -9.82600
H          5.21000        9.76900      -10.55300
C          6.33500       10.31000       -8.79900
H          6.83700       11.13100       -9.31000
H          5.49600       10.70900       -8.23300
H          7.03200        9.84400       -8.10200
C          7.08400        8.74900      -10.56500
H          7.61500        9.57400      -11.04000
H          7.75400        8.24400       -9.86800
H          6.77300        8.04500      -11.33600
C          2.70600        8.76800       -9.83100
O          2.28100        7.80200      -10.46900
N          2.34500       10.03100      -10.15700
C          1.35200       10.30200      -11.18800
H          0.52800        9.58700      -11.14600
H          1.82900       10.26300      -12.16800
C          0.83500       11.71100      -10.91500
H          0.05100       11.67600      -10.15600
H          0.47600       12.19500      -11.82300
C          2.07400       12.40100      -10.35000
H          1.81000       13.27400       -9.75100
H          2.73100       12.69200      -11.17100
C          2.74600       11.29700       -9.52400
H          3.82400       11.42100       -9.60700
C          2.36100       11.39300       -8.04000
O          1.54200       10.62300       -7.54700
N          3.01100       12.30600       -7.31500
H          3.60400       12.97800       -7.78000
C          3.04500       12.31100       -5.85100
H          2.12500       11.85400       -5.48200
C          4.25000       11.45300       -5.41000
H          4.20300       10.49800       -5.93200
H          5.17300       11.94800       -5.71700
C          4.32700       11.16300       -3.90500
H          5.11200       10.42800       -3.72700
H          4.58900       12.07500       -3.36900
C          3.01200       10.62300       -3.35900
O          2.28600       11.31300       -2.66300
N          2.61200        9.42800       -3.72400
H          1.71200        9.13300       -3.39600
H          3.15300        8.88800       -4.39600
C          3.11000       13.74000       -5.29000
O          3.61400       14.64600       -5.94500
N          2.62000       13.96300       -4.07700
H          2.66200       14.89800       -3.70700
H          2.23900       13.20000       -3.53100
