70
0 1
H          9.29400       11.30200        0.11900
C         10.10900       10.58400        0.18200
H         10.81500       10.90200        0.94800
H         10.61900       10.51500       -0.77800
C          9.55400        9.23100        0.55500
O          9.92900        8.67100        1.57700
N          8.67000        8.69500       -0.28400
H          8.42800        9.22400       -1.10700
C          7.96600        7.42100       -0.07400
H          7.70400        7.34900        0.98200
C          6.64500        7.41500       -0.88100
H          6.84400        7.74500       -1.90200
H          6.28800        6.38600       -0.93700
C          5.48000        8.23200       -0.28600
H          5.24800        7.84200        0.70400
C          5.74400        9.73500       -0.16800
H          6.07000       10.13700       -1.12700
H          4.83400       10.24600        0.14400
H          6.50100        9.91700        0.59400
C          4.24100        8.05000       -1.16400
H          3.39200        8.57200       -0.72300
H          4.42600        8.44500       -2.16300
H          3.99400        6.99000       -1.23800
C          8.86600        6.19500       -0.36700
O          8.49600        5.30600       -1.13000
N         10.05500        6.12400        0.24400
H         10.30400        6.87700        0.87600
C         10.97600        4.97900        0.10600
H         11.18700        4.83100       -0.95400
C         12.30000        5.29600        0.82200
H         13.01800        4.51300        0.57400
H         12.70000        6.23100        0.42700
C         12.20600        5.39400        2.33800
C         12.25900        4.22500        3.12500
H         12.38400        3.25800        2.65400
C         12.13900        4.30900        4.52500
H         12.17100        3.41800        5.13500
C         11.97800        5.56400        5.14700
O         11.85200        5.63800        6.49600
H         11.76700        6.54100        6.80200
C         11.93900        6.73700        4.36200
H         11.81700        7.70100        4.83000
C         12.05700        6.64800        2.96100
H         12.03300        7.55000        2.36500
C         10.37700        3.66000        0.63600
O         10.79000        2.57600        0.23700
N          9.39500        3.76600        1.53200
H          9.15200        4.70000        1.82300
C          8.58900        2.68400        2.10100
H          9.21700        1.80000        2.22000
C          8.12800        3.14700        3.49400
H          7.43500        2.41500        3.91300
H          8.99800        3.17100        4.15200
C          7.47800        4.52200        3.50300
C          8.26500        5.66800        3.73900
H          9.32000        5.56600        3.95500
C          7.68300        6.94800        3.68900
H          8.28300        7.83200        3.85500
C          6.30600        7.08600        3.41900
O          5.74900        8.32400        3.37200
H          4.79300        8.28500        3.36500
C          5.51700        5.94000        3.18100
H          4.46400        6.04000        2.96300
C          6.10600        4.66000        3.22000
H          5.50600        3.77800        3.02900
C          7.39700        2.26900        1.20900
O          6.56700        1.46400        1.61400
N          7.25000        2.81300        0.00600
H          7.91700        3.48900       -0.33900
H          6.47100        2.51800       -0.55800
