62
0 1
H          1.36800       -3.61800       -3.24200
C          0.33600       -3.27400       -3.29300
H         -0.30800       -3.96500       -2.75300
H          0.01900       -3.21400       -4.33300
C          0.23400       -1.90500       -2.66600
O         -0.17800       -0.95700       -3.32300
N          0.62400       -1.80600       -1.39600
H          0.99000       -2.64700       -0.97500
C          0.62100       -0.55200       -0.61600
H          0.87500        0.26000       -1.30100
C         -0.80100       -0.25900       -0.08800
H         -0.76300        0.63900        0.53100
H         -1.42000       -0.01700       -0.95300
C         -1.52300       -1.37400        0.69900
H         -1.61100       -2.26300        0.07500
C         -0.82800       -1.76200        2.00600
H         -1.47100       -2.42300        2.58600
H          0.09300       -2.29900        1.79500
H         -0.60900       -0.86900        2.59300
C         -2.93600       -0.90200        1.04900
H         -3.47900       -1.69900        1.55600
H         -2.88900       -0.02700        1.69800
H         -3.47400       -0.64400        0.13600
C          1.69200       -0.47900        0.49200
O          1.86600        0.55800        1.12500
N          2.44800       -1.55800        0.70500
H          2.28600       -2.36200        0.11300
C          3.53700       -1.67300        1.68500
H          3.14100       -1.38700        2.66000
C          3.97700       -3.15200        1.76200
H          4.57800       -3.27700        2.66400
H          3.09000       -3.77700        1.87900
C          4.80700       -3.68300        0.57100
H          5.77500       -3.18200        0.56900
H          4.99200       -4.74700        0.71600
C          4.14000       -3.49600       -0.79200
O          2.95200       -3.72200       -0.97600
N          4.85500       -2.99700       -1.77300
H          4.35600       -2.69600       -2.59600
H          5.81900       -2.75600       -1.63600
C          4.73100       -0.74000        1.40000
O          5.57600       -0.53900        2.26600
N          4.81400       -0.17700        0.19000
H          4.10300       -0.41200       -0.49200
C          5.77200        0.86200       -0.20300
H          6.71000        0.70900        0.33300
C          6.03900        0.71900       -1.71000
H          6.75000        1.48200       -2.02800
H          6.49500       -0.25400       -1.89600
C          4.78800        0.82600       -2.54700
N          3.88700       -0.21500       -2.79200
C          2.90300        0.32500       -3.52800
H          2.04800       -0.21700       -3.91100
N          3.12500        1.63500       -3.72700
H          2.51200        2.25800       -4.23500
C          4.31000        1.97100       -3.11200
H          4.77000        2.94900       -3.05500
C          5.30900        2.29300        0.13800
O          6.00500        3.25200       -0.17200
N          4.14200        2.48600        0.73800
H          3.54500        1.70400        0.97200
H          3.86400        3.42900        0.95100
