66
0 1
H          9.25500        7.86300        4.56600
C          9.92500        7.39000        3.85200
H          9.33100        6.82600        3.13400
H         10.60200        6.71400        4.37000
C         10.72100        8.44300        3.11200
O         10.60100        8.56000        1.90200
N         11.53900        9.25900        3.77900
H         12.06600        9.89300        3.19900
C         11.71200        9.37700        5.24000
H         11.64600        8.38600        5.68800
C         13.11600        9.94300        5.54300
H         13.16900       10.95900        5.14900
H         13.23700       10.00400        6.62600
C         14.29800        9.13300        4.97300
H         14.22700        9.10000        3.88600
C         15.61300        9.82000        5.34200
H         16.45000        9.27200        4.90900
H         15.62100       10.83700        4.94900
H         15.72900        9.85300        6.42600
C         14.34100        7.70100        5.51000
H         14.36200        7.71000        6.60000
H         13.46900        7.14600        5.16700
H         15.23200        7.19500        5.13900
C         10.61400       10.21900        5.93000
O         10.68300       10.47700        7.12800
N          9.60300       10.65500        5.17700
H          9.58700       10.36600        4.21200
C          8.37200       11.25600        5.69600
H          8.64500       12.07500        6.36100
C          7.58900       11.82400        4.49900
H          6.67000       12.28500        4.85800
H          8.18400       12.61200        4.03600
C          7.22800       10.81900        3.44500
C          8.01200       10.45900        2.40200
H          8.98400       10.87800        2.17400
N          7.41800        9.42500        1.70800
H          7.87000        8.95200        0.93600
C          6.19300        9.09100        2.24300
C          5.22400        8.13800        1.89600
H          5.38300        7.48100        1.05400
C          4.04300        8.05800        2.65300
H          3.28100        7.33400        2.39700
C          3.84700        8.93000        3.73900
H          2.93300        8.87600        4.31600
C          4.83100        9.87800        4.08300
H          4.66100       10.54000        4.91800
C          6.03400        9.97800        3.35100
C          7.54700       10.22300        6.50200
O          7.67800        9.01900        6.26600
N          6.69400       10.65400        7.45400
C          6.49300       12.03400        7.87700
H          6.26300       12.68600        7.03500
H          7.38700       12.38700        8.39300
C          5.31600       12.01100        8.85100
H          4.38000       12.12000        8.30000
H          5.40600       12.78700        9.61200
C          5.40400       10.61000        9.45300
H          4.44600       10.27600        9.85500
H          6.16100       10.60300       10.23900
C          5.88600        9.74900        8.27800
H          6.51200        8.94500        8.66700
C          4.73700        9.11800        7.47000
O          3.61600        9.61400        7.44100
N          5.00200        8.01800        6.78200
H          5.95900        7.70200        6.71300
H          4.28000        7.63100        6.19800
