66
0 1
H          9.08800        3.67900        2.14000
C          8.17300        4.04800        1.68100
H          7.83600        4.94000        2.20800
H          7.39500        3.28700        1.72900
C          8.43600        4.40200        0.23800
O          8.19500        5.53200       -0.17200
N          8.91700        3.42800       -0.53900
H          9.10500        2.53600       -0.11200
C          9.20300        3.58800       -1.97700
H          9.81900        4.48100       -2.09500
C         10.03300        2.38400       -2.46900
H         10.42000        2.60900       -3.46400
H         10.89800        2.29800       -1.81000
C          9.28900        1.02900       -2.51300
H          8.50200        1.01400       -1.76000
C          8.67400        0.74000       -3.88500
H          8.15100       -0.21600       -3.86100
H          7.95900        1.51400       -4.15800
H          9.45400        0.70000       -4.64600
C         10.25700       -0.11400       -2.20100
H         10.67700        0.01600       -1.20400
H          9.72700       -1.06600       -2.23200
H         11.06500       -0.13100       -2.93300
C          7.94100        3.82500       -2.83100
O          8.02800        4.41400       -3.90500
N          6.77300        3.41600       -2.33100
H          6.78000        2.98500       -1.42000
C          5.45800        3.79000       -2.84600
H          5.56500        4.67300       -3.47700
C          4.86700        2.67100       -3.71100
H          5.51100        2.51400       -4.57700
H          4.85100        1.74600       -3.13300
C          3.46400        2.98700       -4.19600
C          2.35500        2.31200       -3.64900
H          2.50200        1.53300       -2.91200
C          1.05100        2.65400       -4.05700
H          0.19400        2.14000       -3.64800
C          0.85300        3.67900       -5.00500
O         -0.40800        4.01700       -5.37400
H         -0.41800        4.68300       -6.06200
C          1.96400        4.36300       -5.54500
H          1.81800        5.15400       -6.26400
C          3.26700        4.01300       -5.14000
H          4.11900        4.54200       -5.55100
C          4.54300        4.16600       -1.67300
O          4.66700        3.60300       -0.58500
N          3.66200        5.14500       -1.88900
H          3.66600        5.56900       -2.80900
C          2.99900        5.91100       -0.82500
H          3.28500        5.49200        0.14100
C          3.49700        7.37400       -0.85700
H          3.05500        7.88900       -1.71200
H          3.13000        7.87000        0.04300
C          5.03300        7.54700       -0.89600
H          5.27400        8.57600       -0.63200
H          5.48300        6.89800       -0.14400
C          5.66900        7.26200       -2.26100
O          5.03300        7.29100       -3.30400
N          6.92500        6.88700       -2.30800
H          7.29000        6.61200       -3.20700
H          7.44100        6.69500       -1.45300
C          1.46000        5.83600       -0.88100
O          0.77300        6.48100       -0.10000
N          0.88200        5.06500       -1.79500
H          1.44600        4.52200       -2.43000
H         -0.12400        5.03200       -1.82400
