68
0 1
H          4.96700        7.79500       -3.40500
C          4.82900        7.40000       -2.40100
H          4.30500        6.44600       -2.45500
H          4.24900        8.09900       -1.80200
C          6.17800        7.18300       -1.75700
O          6.51000        6.06300       -1.39200
N          6.94600        8.26300       -1.60400
H          6.57500        9.14400       -1.92100
C          8.29400        8.27400       -1.01600
H          8.85000        7.43600       -1.44100
C          9.00100        9.57700       -1.44800
H          8.86800        9.71600       -2.52200
H          8.50500       10.41500       -0.95400
C         10.51100        9.59400       -1.11300
H         10.76700        8.74900       -0.47300
C         11.35100        9.50400       -2.38800
H         11.08300        8.60400       -2.93800
H         11.17200       10.37500       -3.01900
H         12.40800        9.46200       -2.12700
C         10.91100       10.88400       -0.39600
H         10.35000       10.96900        0.53600
H         11.97500       10.85900       -0.15800
H         10.69800       11.74800       -1.02400
C          8.27100        8.06800        0.51600
O          8.66800        8.94100        1.28400
N          7.79000        6.91200        0.97800
H          7.45000        6.24900        0.28700
C          7.63000        6.59000        2.40700
H          7.02100        7.36700        2.87200
C          6.89200        5.24700        2.54300
H          7.43800        4.48000        1.98900
H          6.87400        4.95900        3.59600
C          5.44100        5.31200        2.03600
H          4.88700        6.04400        2.62400
H          5.42000        5.62600        0.99500
C          4.71900        3.97000        2.13100
O          5.20900        2.91500        2.50400
O          3.42700        3.99700        1.75500
H          3.12300        3.09500        1.86700
C          8.95900        6.55000        3.19000
O          8.96000        6.67000        4.41000
N         10.08600        6.40100        2.49100
H         10.00000        6.30800        1.49100
C         11.45200        6.45800        3.02700
H         11.44300        6.11200        4.06200
C         12.32200        5.49800        2.20300
H         13.34300        5.52000        2.58800
H         11.94900        4.48400        2.34800
C         12.34800        5.77800        0.72900
C         13.29500        6.49500        0.08600
H         14.16200        6.93600        0.56700
N         12.97700        6.58700       -1.25600
H         13.55400        7.06900       -1.93000
C         11.78400        5.95600       -1.53900
C         11.03700        5.80100       -2.71600
H         11.39300        6.21400       -3.64800
C          9.82100        5.09900       -2.66600
H          9.22700        4.97000       -3.56100
C          9.37800        4.55200       -1.44900
H          8.44300        4.00600       -1.41900
C         10.14300        4.70100       -0.27600
H          9.80200        4.24800        0.64400
C         11.36100        5.41700       -0.28800
C         12.04900        7.88200        3.04600
O         13.22400        8.06200        3.34700
N         11.29300        8.91900        2.70400
H         10.32700        8.78600        2.43700
H         11.70400        9.83600        2.72900
