59
0 1
H          4.31000        5.33100       -1.43700
C          4.61900        5.56400       -2.45500
H          4.08500        4.92000       -3.15200
H          5.69300        5.41600       -2.55500
C          4.27800        7.00400       -2.75400
O          3.67300        7.67200       -1.92500
N          4.66600        7.46900       -3.94100
H          5.14300        6.83200       -4.56100
C          4.38300        8.80400       -4.48500
H          3.45500        9.16200       -4.04600
C          5.52500        9.78200       -4.13000
H          6.46900        9.32200       -4.42700
H          5.40800       10.68700       -4.72700
C          5.62600       10.20500       -2.65200
H          5.74600        9.32700       -2.02000
C          6.85900       11.09200       -2.46500
H          7.75400       10.54400       -2.75900
H          6.77100       11.99400       -3.07000
H          6.95300       11.37100       -1.41600
C          4.40400       11.00600       -2.19400
H          4.25200       11.87300       -2.83500
H          3.51400       10.37700       -2.21600
H          4.54900       11.33800       -1.16600
C          4.21300        8.73200       -6.02000
O          4.76600        7.81600       -6.63400
N          3.48900        9.67600       -6.66000
C          3.42700        9.78000       -8.11200
H          3.31000        8.80400       -8.58500
H          4.33900       10.25500       -8.47500
C          2.22500       10.67000       -8.41800
H          1.31700       10.06700       -8.45600
H          2.35900       11.22400       -9.34800
C          2.18800       11.59800       -7.20300
H          1.19400       12.01900       -7.04600
H          2.91800       12.39700       -7.33700
C          2.62900       10.69600       -6.04400
H          3.19500       11.29200       -5.32800
C          1.41400       10.09500       -5.31400
O          0.98700       10.63600       -4.29900
N          0.91400        8.94000       -5.76200
H          1.28400        8.57000       -6.63100
C          0.00200        8.08100       -4.99400
H         -0.75200        8.72600       -4.53900
C         -0.75800        7.12100       -5.94200
H         -1.57700        6.67300       -5.37900
H         -1.21200        7.72800       -6.72800
C          0.01700        5.97400       -6.62400
H          0.17400        5.16500       -5.91100
H         -0.59100        5.57000       -7.43300
C          1.35700        6.41100       -7.20200
O          1.42600        7.19400       -8.13300
N          2.45900        6.02600       -6.60300
H          3.33300        6.41000       -6.94300
H          2.38200        5.55700       -5.71200
C          0.76100        7.39700       -3.83400
O          1.26800        6.28300       -3.94500
N          0.91400        8.09900       -2.72200
H          1.54000        7.73900       -2.01400
H          0.59200        9.05500       -2.68800
