62
0 1
H         -5.86200        4.66400        1.02400
C         -4.84200        4.46000        1.34300
H         -4.79600        3.49900        1.85500
H         -4.50900        5.24600        2.01800
C         -3.93100        4.41600        0.14100
O         -2.92200        5.11500        0.12100
N         -4.30600        3.60000       -0.85000
H         -5.16100        3.09200       -0.69100
C         -3.54900        3.22200       -2.06200
H         -4.16500        2.50700       -2.60800
C         -3.33300        4.43100       -2.99800
H         -2.65000        5.13000       -2.51400
H         -2.84200        4.07400       -3.90500
C         -4.60600        5.20100       -3.40100
H         -5.10000        5.58700       -2.51000
C         -4.22800        6.38700       -4.28700
H         -3.54400        7.04400       -3.74900
H         -3.74600        6.03800       -5.20100
H         -5.12200        6.95400       -4.54700
C         -5.59600        4.32700       -4.17500
H         -6.44700        4.93000       -4.49300
H         -5.11200        3.89900       -5.05300
H         -5.96700        3.52500       -3.53800
C         -2.23900        2.46300       -1.77300
O         -2.05600        1.35100       -2.26500
N         -1.36800        3.03400       -0.94400
H         -1.63800        3.93700       -0.57500
C         -0.30800        2.31700       -0.23100
H          0.08100        1.53900       -0.89000
C          0.86500        3.27400        0.06700
H          1.61600        2.74300        0.65400
H          1.32900        3.53600       -0.88500
C          0.50800        4.58900        0.78500
H          1.41400        5.18700        0.88300
H         -0.19200        5.16400        0.17900
C         -0.06100        4.37900        2.18100
O          0.54600        3.75000        3.03100
N         -1.24700        4.86400        2.46300
H         -1.61400        4.63400        3.36700
H         -1.82200        5.24600        1.72100
C         -0.86800        1.59800        1.01700
O         -1.97900        1.87600        1.47100
N         -0.10600        0.63800        1.54500
H          0.76500        0.43700        1.07200
C         -0.57000       -0.36400        2.51800
H         -1.65800       -0.42200        2.46100
C         -0.01200       -1.75000        2.11500
H          1.06900       -1.68000        1.98100
H         -0.19700       -2.45600        2.92400
C         -0.65000       -2.34800        0.84300
H         -0.21200       -3.32800        0.65600
H         -1.71500       -2.49200        1.02800
C         -0.46600       -1.49800       -0.41300
O          0.60800       -0.99700       -0.70500
N         -1.52200       -1.24100       -1.15200
H         -1.42500       -0.51800       -1.85800
H         -2.42200       -1.60200       -0.90700
C         -0.26100       -0.01800        3.99100
O         -0.48900       -0.83000        4.88000
N          0.25800        1.16300        4.30100
H          0.44800        1.36200        5.26800
H          0.40700        1.87000        3.59200
