69
0 1
H          5.10100        8.95600       -3.02900
C          5.20000        9.95100       -3.46200
H          5.37400       10.67700       -2.67000
H          4.29100       10.20400       -4.00500
C          6.37200        9.96000       -4.41400
O          7.03600        8.94200       -4.58300
N          6.62700       11.11000       -5.03600
H          6.05700       11.91000       -4.81500
C          7.77800       11.31300       -5.92000
H          7.84000       10.45700       -6.59400
C          7.54400       12.57800       -6.76900
H          6.64300       12.43600       -7.36700
H          7.37400       13.41800       -6.09400
C          8.71200       12.94800       -7.70700
H          9.61200       13.13000       -7.12000
C          9.00500       11.85300       -8.73500
H          9.36500       10.95200       -8.24000
H          8.10600       11.62100       -9.30600
H          9.78400       12.19200       -9.41900
C          8.37000       14.23100       -8.46400
H          7.48400       14.08100       -9.08100
H          8.18400       15.03800       -7.75500
H          9.20700       14.51700       -9.10100
C          9.08500       11.38500       -5.11200
O          9.27300       12.29100       -4.30400
N          9.98700       10.43700       -5.35300
H          9.76700        9.72600       -6.03800
C         11.32100       10.34500       -4.75100
H         11.75600       11.34500       -4.72500
C         11.23500        9.84600       -3.28600
H         12.21600        9.49600       -2.96400
H         10.98800       10.70300       -2.65800
C         10.19400        8.75200       -2.98500
H         10.32000        8.41800       -1.95600
H          9.19500        9.17700       -3.06700
C         10.31600        7.54100       -3.89800
O         11.36200        6.92600       -4.00500
N          9.27300        7.16400       -4.60200
H          8.40300        7.69000       -4.55400
H          9.40000        6.37800       -5.21100
C         12.24500        9.49300       -5.64600
O         11.81100        8.95300       -6.66300
N         13.53300        9.43100       -5.30400
H         13.80800        9.84200       -4.42500
C         14.61300        8.85600       -6.12100
H         14.40900        9.07500       -7.17000
C         15.92000        9.56400       -5.73000
H         16.74200        9.17100       -6.33100
H         15.82600       10.62300       -5.97400
C         16.27300        9.44800       -4.27800
C         17.03700        8.47400       -3.73700
H         17.51000        7.67800       -4.30500
N         17.07600        8.62200       -2.36400
H         17.57900        7.99500       -1.75300
C         16.31100        9.69000       -1.94700
C         16.00400       10.21600       -0.68300
H         16.40700        9.76100        0.20900
C         15.16500       11.34000       -0.59600
H         14.91800       11.75900        0.37100
C         14.65100       11.92500       -1.76700
H         14.01400       12.79700       -1.69400
C         14.96700       11.39100       -3.03200
H         14.58100       11.86400       -3.92300
C         15.79800       10.25400       -3.15400
C         14.76500        7.32000       -6.03100
O         15.73900        6.76500       -6.53000
N         13.85800        6.59600       -5.39200
H         13.03600        7.02600       -4.98800
H         13.98500        5.60000       -5.34900
