64
0 1
H          3.84500       -4.52700        0.04900
C          3.54400       -3.80600        0.80900
H          2.86300       -4.28100        1.51300
H          3.05800       -2.95700        0.33500
C          4.77400       -3.33200        1.54700
O          5.87800       -3.76200        1.24300
N          4.57700       -2.44500        2.52200
H          3.62800       -2.17700        2.73700
C          5.62800       -1.87400        3.37100
H          6.50300       -2.52500        3.35000
C          6.02500       -0.47300        2.86000
H          5.12500        0.14300        2.83600
H          6.70700       -0.02300        3.58000
C          6.68800       -0.43200        1.46900
H          6.05700       -0.94000        0.74100
C          6.84500        1.02100        1.01600
H          7.28100        1.04700        0.01700
H          5.86700        1.50100        0.98100
H          7.48900        1.56300        1.70500
C          8.07600       -1.07600        1.47400
H          7.98800       -2.14000        1.69300
H          8.52900       -0.97600        0.48800
H          8.71500       -0.60300        2.21800
C          5.14100       -1.79100        4.82300
O          3.98200       -1.45800        5.06400
N          6.02900       -2.05200        5.78800
H          6.96600       -2.30900        5.51800
C          5.70200       -2.04300        7.22300
H          4.86700       -2.72600        7.39000
C          6.92700       -2.57800        7.99200
H          7.13200       -3.57700        7.60400
H          7.79900       -1.95900        7.77300
C          6.74000       -2.67400        9.52300
H          5.68600       -2.82600        9.75700
C          7.52300       -3.86900       10.07200
H          8.58400       -3.75900        9.84800
H          7.38700       -3.93300       11.15100
H          7.15100       -4.79100        9.62400
C          7.25500       -1.43000       10.25400
H          6.70200       -0.54700        9.94200
H          7.11200       -1.55300       11.32700
H          8.31500       -1.28100       10.04800
C          5.24100       -0.66000        7.71900
O          4.36100       -0.56600        8.56800
N          5.81300        0.41200        7.16700
H          6.55900        0.26500        6.50000
C          5.43000        1.80600        7.41800
H          5.01500        1.88000        8.42500
C          6.69900        2.66800        7.36100
H          6.44500        3.70200        7.59600
H          7.39500        2.32000        8.12500
C          7.40100        2.62100        6.02600
N          8.16300        1.55100        5.54600
C          8.61700        1.93800        4.34500
H          9.25900        1.34000        3.71200
N          8.15700        3.16300        4.03800
H          8.35800        3.67100        3.18800
C          7.38400        3.60900        5.08700
H          6.85900        4.55100        5.16800
C          4.33200        2.32600        6.46700
O          4.12600        3.52800        6.35100
N          3.62800        1.46200        5.74600
H          3.78300        0.46700        5.84000
H          2.91100        1.82000        5.13900
