63
0 1
H          7.77300        5.00700        4.97100
C          6.86000        4.43500        5.12100
H          7.10800        3.45000        5.51400
H          6.32800        4.33400        4.17700
C          5.98300        5.15300        6.11800
O          5.72900        4.63500        7.19800
N          5.50100        6.34200        5.75000
H          5.73400        6.67300        4.82800
C          4.74900        7.24600        6.63600
H          5.40200        7.51100        7.46900
C          4.42900        8.52500        5.83500
H          5.36600        8.94500        5.46600
H          3.82500        8.24400        4.97100
C          3.67400        9.62700        6.60700
H          2.71100        9.24700        6.94600
C          4.46600       10.14300        7.81100
H          5.44900       10.49300        7.49700
H          3.92400       10.96400        8.28100
H          4.57800        9.35000        8.55000
C          3.41200       10.80900        5.67300
H          4.35500       11.23300        5.32600
H          2.82600       10.47800        4.81500
H          2.84700       11.57600        6.20300
C          3.48200        6.61800        7.25400
O          3.08900        6.99300        8.35500
N          2.87600        5.62600        6.59400
H          3.27500        5.33100        5.71100
C          1.72700        4.87400        7.11700
H          0.96400        5.60200        7.39700
C          1.13100        3.98100        6.00700
H          0.12900        3.69600        6.33100
H          1.01400        4.56600        5.09300
C          1.89100        2.67600        5.68800
H          2.06100        2.10500        6.60100
H          1.25700        2.06300        5.04700
C          3.22100        2.86100        4.96100
O          3.63600        3.90500        4.47200
O          3.96400        1.74200        4.86000
H          4.76000        1.98800        4.38900
C          2.03400        4.05700        8.39100
O          1.10600        3.57600        9.03200
N          3.31200        3.87700        8.74500
H          4.03700        4.28200        8.16300
C          3.75000        3.21100        9.97800
H          3.01800        2.44800       10.24600
C          5.10300        2.51400        9.72300
H          5.85800        3.28500        9.55800
H          5.38500        1.96800       10.62500
C          5.12900        1.53900        8.52900
H          4.86700        2.06700        7.61300
C          6.53800        0.97100        8.35400
H          6.56300        0.30500        7.49300
H          7.23900        1.78900        8.18800
H          6.83200        0.42000        9.24800
C          4.15900        0.36900        8.70800
H          3.13500        0.73700        8.74800
H          4.24500       -0.31300        7.86200
H          4.38600       -0.16700        9.62900
C          3.83000        4.16500       11.18900
O          4.14600        3.74100       12.29400
N          3.56800        5.45700       11.02300
H          3.31300        5.81500       10.11200
H          3.61900        6.06000       11.82500
