65
0 1
H          7.25900        5.09500       -3.65800
C          7.05700        4.85200       -2.61700
H          6.47500        3.93400       -2.55600
H          6.49800        5.66600       -2.15500
C          8.35700        4.66800       -1.87200
O          8.60300        5.35100       -0.88800
N          9.21000        3.76500       -2.36100
H          8.92100        3.24500       -3.17400
C         10.46100        3.35000       -1.69700
H         10.19800        2.90600       -0.73400
C         11.10300        2.24900       -2.56800
H         10.36200        1.45600       -2.67200
H         11.30100        2.64100       -3.56700
C         12.40000        1.63300       -1.99500
H         12.40400        1.72000       -0.90900
C         12.47700        0.14700       -2.35000
H         13.39600       -0.28100       -1.94600
H         11.63200       -0.38200       -1.91100
H         12.46500        0.01500       -3.43300
C         13.65800        2.29400       -2.57100
H         14.54300        1.83100       -2.13500
H         13.69000        2.17400       -3.65400
H         13.67900        3.35400       -2.32600
C         11.43000        4.50900       -1.38200
O         12.18400        4.43200       -0.41700
N         11.36900        5.60600       -2.14300
H         10.68800        5.62000       -2.88300
C         12.13400        6.83800       -1.89900
H         13.19600        6.59000       -1.91000
C         11.85100        7.82700       -3.04400
H         12.60400        8.61600       -3.00400
H         11.97300        7.31900       -4.00200
C         10.47500        8.47100       -2.98600
C         10.31700        9.72100       -2.35300
H         11.17800       10.23400       -1.94400
C          9.03600       10.28900       -2.21800
H          8.90400       11.23500       -1.71400
C          7.90500        9.59800       -2.69700
O          6.66300       10.08300       -2.45000
H          6.10200        9.39400       -2.06500
C          8.06300        8.35600       -3.34900
H          7.19000        7.83800       -3.71400
C          9.34800        7.80200       -3.50800
H          9.46400        6.85800       -4.01500
C         11.83500        7.49700       -0.53400
O         12.61300        8.33000       -0.07800
N         10.72300        7.13800        0.11600
H         10.11200        6.46100       -0.32600
C         10.31800        7.63000        1.43900
H         10.57900        8.68700        1.51100
C          8.78700        7.50200        1.58200
H          8.52300        6.44400        1.53300
H          8.48300        7.88100        2.55900
C          8.01400        8.27200        0.49000
H          8.09800        9.33900        0.69000
H          8.45700        8.06900       -0.48000
C          6.53300        7.91400        0.36500
O          5.87100        8.04900       -0.66000
O          5.93900        7.40800        1.46400
H          5.03100        7.23900        1.21400
C         11.03900        6.91200        2.60000
O         10.86200        7.27500        3.75700
N         11.84100        5.88400        2.34200
H         12.30700        5.43900        3.11300
H         11.98800        5.57600        1.39100
