73
0 1
H          2.20900        7.28200        6.10000
C          2.91400        6.45700        6.02300
H          2.69900        5.70800        6.78200
H          3.92900        6.83100        6.15500
C          2.79900        5.83200        4.65300
O          3.76400        5.81200        3.89900
N          1.61600        5.31100        4.33000
H          0.85900        5.41300        4.98500
C          1.31400        4.79400        2.99200
H          2.21200        4.31900        2.59400
C          0.19400        3.73700        3.05200
H         -0.71000        4.21600        3.43100
H         -0.00800        3.39700        2.03500
C          0.50100        2.50300        3.92100
H          0.68800        2.81500        4.94900
C         -0.70800        1.56700        3.91600
H         -1.58700        2.09500        4.28500
H         -0.89900        1.20200        2.90700
H         -0.51500        0.71700        4.57100
C          1.70900        1.71500        3.41100
H          1.84200        0.81500        4.01100
H          1.56200        1.43300        2.36900
H          2.61300        2.31700        3.50000
C          0.93900        5.92400        2.02200
O          0.28600        6.89700        2.39500
N          1.26100        5.72700        0.74400
H          1.76000        4.88000        0.51500
C          0.94600        6.62500       -0.37900
H          1.38500        7.60400       -0.18500
C          1.59700        6.03900       -1.64200
H          1.30200        6.63300       -2.50900
H          2.68000        6.13000       -1.54400
C          1.27600        4.59600       -1.89900
C          0.26300        4.14100       -2.67000
H         -0.42500        4.77200       -3.22300
N          0.21700        2.76200       -2.60900
H         -0.49500        2.20700       -3.06700
C          1.17900        2.25700       -1.76300
C          1.49700        0.95800       -1.34300
H          0.93700        0.11400       -1.71500
C          2.56300        0.77300       -0.44500
H          2.83100       -0.22300       -0.11700
C          3.29500        1.88300        0.01200
H          4.12500        1.73400        0.69100
C          2.96700        3.18400       -0.41700
H          3.55600        4.02200       -0.07300
C          1.89400        3.40600       -1.31100
C         -0.56000        6.85900       -0.61000
O         -0.92600        7.77000       -1.34500
N         -1.43700        6.07500        0.02500
H         -1.07000        5.31900        0.57800
C         -2.88700        6.30500        0.05300
H         -3.22000        6.52100       -0.96300
C         -3.59200        5.02600        0.53400
H         -3.37700        4.89100        1.59600
H         -4.66900        5.16300        0.43500
C         -3.20400        3.76400       -0.21700
C         -3.48600        3.65300       -1.59200
H         -3.99200        4.45900       -2.10700
C         -3.11000        2.49500       -2.29800
H         -3.32200        2.40200       -3.35300
C         -2.45200        1.44400       -1.62700
O         -2.05100        0.35100       -2.32500
H         -1.87400       -0.39400       -1.74900
C         -2.17300        1.55000       -0.24700
H         -1.65800        0.75200        0.26400
C         -2.55400        2.71000        0.45600
H         -2.35100        2.78800        1.51400
C         -3.31500        7.50500        0.92500
O         -4.47600        7.89600        0.90800
N         -2.42700        8.09600        1.71700
H         -1.47200        7.76500        1.75500
H         -2.72700        8.88500        2.26400
