59
0 1
H          6.66600       12.92800        4.90800
C          6.93800       13.14100        3.87600
H          8.00200       13.36300        3.80900
H          6.36300       13.99200        3.51500
C          6.62200       11.93800        3.02000
O          5.82100       12.03000        2.09700
N          7.25200       10.80400        3.32300
H          7.85800       10.79300        4.12600
C          6.96500        9.53300        2.65200
H          6.93200        9.70900        1.57600
C          8.07200        8.50200        2.94900
H          8.08500        8.31400        4.02300
H          7.80900        7.56600        2.45400
C          9.48900        8.91200        2.50500
H          9.77900        9.83200        3.01300
C         10.48300        7.81800        2.89600
H         10.45100        7.65900        3.97300
H         10.23400        6.88500        2.38800
H         11.49300        8.12000        2.61800
C          9.59100        9.12900        0.99300
H          9.26000        8.23700        0.46200
H          8.97900        9.98000        0.69500
H         10.62400        9.34500        0.72200
C          5.58900        8.99700        3.07600
O          5.31400        8.84600        4.26600
N          4.72900        8.69200        2.10300
H          5.01300        8.83800        1.14800
C          3.42300        8.07500        2.35600
H          2.97900        8.57900        3.21200
C          2.49200        8.27100        1.15000
H          2.95000        7.81700        0.27000
H          1.54900        7.75800        1.34200
C          2.18300        9.74300        0.84100
H          3.10900       10.27800        0.62300
H          1.57600        9.76400       -0.06500
S          1.26500       10.63500        2.12900
C          2.61600       11.49600        2.98400
H          3.15500       12.12700        2.27500
H          2.20300       12.12100        3.77500
H          3.30700       10.77900        3.42300
C          3.56500        6.57600        2.69300
O          4.41300        5.90700        2.09700
N          2.73000        6.01600        3.59300
C          1.71800        6.72100        4.37400
H          1.01800        7.25600        3.73200
H          2.21000        7.41600        5.05600
C          0.98000        5.65300        5.18100
H          0.13800        5.26900        4.60300
H          0.64300        6.03600        6.14500
C          2.04000        4.56500        5.34100
H          1.60200        3.59200        5.56400
H          2.73300        4.85000        6.13500
C          2.77000        4.60500        3.99100
H          3.80500        4.29700        4.14400
C          2.15500        3.67500        2.92200
O          1.13400        3.03100        3.12900
N          2.74900        3.60700        1.74000
H          3.57200        4.16900        1.56600
H          2.35200        3.00800        1.03500
