64
0 1
H         12.29400       17.28800       -0.25900
C         11.92000       16.37000       -0.70800
H         12.14300       16.35900       -1.77300
H         10.84200       16.30600       -0.56200
C         12.57600       15.18200       -0.04700
O         11.89800       14.35500        0.55000
N         13.90500       15.11000       -0.12700
H         14.38300       15.84900       -0.61700
C         14.72900       14.01800        0.42000
H         14.20600       13.08400        0.21500
C         16.08600       13.96200       -0.31500
H         16.63300       14.88100       -0.09800
H         16.66300       13.13000        0.09100
C         16.00500       13.78500       -1.84400
H         15.46500       14.62600       -2.28100
C         17.41500       13.76900       -2.43300
H         17.97900       12.92500       -2.03400
H         17.36200       13.68300       -3.51800
H         17.93100       14.69500       -2.18100
C         15.30400       12.48600       -2.24800
H         14.25800       12.51300       -1.94600
H         15.34300       12.36600       -3.33100
H         15.79400       11.63300       -1.77600
C         14.88300       14.07000        1.95900
O         15.97200       13.89100        2.49900
N         13.78700       14.32900        2.67800
H         12.91600       14.41500        2.16600
C         13.75700       14.52900        4.13600
H         14.51300       15.26900        4.39900
C         12.37100       15.07100        4.54100
H         11.62500       14.30500        4.32100
H         12.36800       15.23400        5.62000
C         11.94200       16.38200        3.85000
H         11.89600       16.23100        2.77200
C         10.54700       16.78200        4.33000
H          9.83800       15.98500        4.10400
H         10.55600       16.96000        5.40600
H         10.22600       17.68900        3.81800
C         12.89800       17.54000        4.14200
H         12.51700       18.45600        3.69200
H         12.99500       17.68200        5.21900
H         13.87900       17.33100        3.71600
C         14.10400       13.26700        4.95200
O         14.34300       13.36100        6.15100
N         14.14200       12.09600        4.31100
H         13.95600       12.10700        3.32000
C         14.60300       10.82800        4.88900
H         14.34300       10.82800        5.94900
C         13.84500        9.66000        4.22800
H         14.01600        8.76700        4.83100
H         12.77500        9.86500        4.25600
C         14.26500        9.33100        2.78400
H         15.31800        9.04700        2.78800
H         13.70200        8.45300        2.46600
S         14.03900       10.62200        1.52100
C         12.23600       10.82100        1.52000
H         11.89700       11.17200        2.49400
H         11.95400       11.55300        0.76200
H         11.76200        9.86600        1.29000
C         16.13200       10.63500        4.82000
O         16.64400        9.61600        5.26700
N         16.88900       11.56400        4.24800
H         16.47200       12.39700        3.85300
H         17.88300       11.41700        4.21700
