61
0 1
H          1.82000        8.13100       -5.01100
C          2.06600        7.27500       -4.38500
H          3.07600        6.93400       -4.60500
H          1.36900        6.46100       -4.58000
C          1.98100        7.67100       -2.93100
O          2.98900        7.68500       -2.23300
N          0.77500        8.00000       -2.46800
H         -0.00500        7.91000       -3.10000
C          0.52400        8.54900       -1.12700
H          1.13400        9.44700       -1.01500
C         -0.96400        8.95200       -1.05700
H         -1.16800        9.66000       -1.86200
H         -1.56700        8.06000       -1.23500
C         -1.42300        9.58200        0.27400
H         -1.27200        8.87500        1.08800
C         -0.68100       10.88200        0.59100
H          0.37500       10.67600        0.76100
H         -0.78900       11.58900       -0.23200
H         -1.08800       11.32300        1.50100
C         -2.91700        9.89800        0.19400
H         -3.47700        8.98400       -0.00600
H         -3.25600       10.31000        1.14500
H         -3.10900       10.62100       -0.59900
C          0.91800        7.59700        0.02100
O          1.30400        8.05700        1.09200
N          0.87100        6.28200       -0.21100
H          0.55700        5.99300       -1.13100
C          1.13500        5.22200        0.77600
H          0.40900        5.34000        1.58200
C          0.88600        3.84400        0.12700
H          0.97900        3.08700        0.90700
H         -0.14000        3.79700       -0.24100
C          1.85900        3.46800       -1.01200
H          2.88300        3.60700       -0.67600
H          1.73600        2.40800       -1.23400
C          1.61200        4.23300       -2.31500
O          0.53300        4.73800       -2.61400
O          2.67800        4.33400       -3.14400
H          3.52300        4.24500       -2.66100
C          2.52600        5.26600        1.44600
O          2.71700        4.61600        2.46900
N          3.48600        6.01700        0.89900
H          3.26700        6.51200        0.04500
C          4.77100        6.32000        1.54800
H          4.58900        6.31200        2.62400
C          5.81200        5.20000        1.28100
H          6.58500        5.27500        2.04700
H          5.31700        4.24000        1.43500
C          6.52400        5.14800       -0.08500
H          7.35600        5.85200       -0.08200
H          6.94400        4.15300       -0.22900
C          5.61000        5.47000       -1.25600
O          4.87300        4.63300       -1.75700
N          5.57500        6.71200       -1.67900
H          4.80700        6.98000       -2.28300
H          6.13300        7.40700       -1.20400
C          5.22700        7.76000        1.23000
O          6.38700        8.02800        0.93700
N          4.29900        8.70900        1.19500
H          4.57800        9.64700        0.96200
H          3.33200        8.48400        1.39400
