66
0 1
H          5.77900        5.86800        1.73400
C          5.03200        5.98300        0.94900
H          4.06700        6.23500        1.38500
H          4.94600        5.04800        0.39600
C          5.46500        7.08000        0.00600
O          5.75500        6.81300       -1.15400
N          5.51400        8.31100        0.51400
H          5.24100        8.42900        1.47700
C          5.91800        9.51300       -0.23700
H          5.96100        9.26700       -1.29900
C          4.85600       10.61700       -0.05100
H          4.84600       10.91200        0.99900
H          5.16000       11.48800       -0.63400
C          3.42200       10.23500       -0.47000
H          3.07800        9.39200        0.13100
C          2.48400       11.41400       -0.21100
H          2.78500       12.27200       -0.81300
H          1.46200       11.13600       -0.47000
H          2.51400       11.68600        0.84400
C          3.32000        9.86100       -1.95000
H          2.28000        9.66900       -2.21100
H          3.70300       10.67200       -2.56900
H          3.89200        8.95400       -2.14700
C          7.33400       10.01600        0.11800
O          7.75400       11.06600       -0.36000
N          8.06800        9.29200        0.96600
H          7.69700        8.41000        1.28800
C          9.41800        9.63800        1.42100
H          9.95300       10.11400        0.59700
C          9.32600       10.64000        2.58500
H          8.78200       11.51900        2.24300
H          8.76700       10.18900        3.40600
C         10.69800       11.08200        3.11000
H         11.20900       10.21400        3.52800
H         11.29400       11.46000        2.27900
S         10.64400       12.35500        4.40200
C         10.13200       13.80300        3.43700
H         10.83900       13.97200        2.62400
H          9.13500       13.64500        3.02600
H         10.11500       14.68000        4.08400
C         10.17700        8.36500        1.81700
O          9.59000        7.45600        2.40000
N         11.47400        8.31000        1.50400
H         11.91000        9.12100        1.09000
C         12.33200        7.13300        1.67600
H         11.92400        6.50400        2.46800
C         12.36400        6.31500        0.37200
H         12.80800        6.92600       -0.41600
H         13.01600        5.45200        0.51500
C         11.00900        5.81800       -0.10200
C         10.51000        4.58500        0.36400
H         11.09600        3.98500        1.04500
C          9.24000        4.13800       -0.04700
H          8.84400        3.19800        0.30700
C          8.46000        4.93000       -0.91300
O          7.21900        4.51600       -1.27300
H          6.65600        5.27900       -1.48600
C          8.95800        6.16400       -1.38200
H          8.35600        6.76600       -2.04700
C         10.23700        6.60000       -0.98600
H         10.61800        7.54400       -1.34800
C         13.75100        7.55500        2.08300
O         14.18800        8.66300        1.79300
N         14.50100        6.68100        2.74100
H         15.43200        6.96000        3.00300
H         14.13800        5.77200        2.97500
