62
0 1
H         11.97900        5.47100       -3.09400
C         11.22200        5.38500       -3.86900
H         11.02000        4.33300       -4.07000
H         11.56500        5.87100       -4.78100
C          9.94900        6.04700       -3.39900
O          8.92900        5.38600       -3.25000
N         10.01800        7.35600       -3.17000
H         10.91400        7.80300       -3.30700
C          8.90000        8.18600       -2.68900
H          7.97200        7.69800       -2.98900
C          8.89500        8.23400       -1.14200
H          8.00600        8.79000       -0.84100
H          8.74700        7.21500       -0.78200
C         10.08900        8.83400       -0.36000
H          9.78500        8.85200        0.68700
C         11.36700        7.99400       -0.42700
H         11.82900        8.07300       -1.40800
H         12.07300        8.35200        0.32200
H         11.13100        6.95100       -0.21400
C         10.45100       10.27100       -0.74100
H         11.14100       10.67900       -0.00300
H         10.92800       10.30200       -1.71900
H          9.54900       10.88500       -0.75200
C          8.83800        9.58200       -3.33900
O          7.96100       10.38500       -3.03200
N          9.78300        9.88000       -4.23100
H         10.46900        9.16700       -4.43700
C         10.05500       11.21000       -4.78700
H         10.10100       11.92900       -3.96900
C         11.43200       11.15000       -5.46900
H         11.35600       10.53700       -6.36800
H         11.71900       12.15700       -5.77400
C         12.52100       10.56600       -4.59200
N         12.63800        9.21800       -4.22100
C         13.72600        9.14800       -3.44000
H         14.10400        8.23700       -2.99400
N         14.27900       10.36300       -3.29100
H         15.10900       10.56800       -2.75100
C         13.53200       11.27100       -4.00900
H         13.70300       12.33500       -4.10200
C          8.97200       11.71300       -5.75200
O          8.91200       12.90200       -6.04400
N          8.10600       10.81400       -6.22000
H          8.24200        9.84900       -5.94200
C          6.88200       11.09300       -6.97700
H          7.07400       11.89000       -7.69600
C          6.50800        9.81000       -7.73500
H          5.58600        9.97300       -8.29400
H          7.29500        9.58600       -8.45600
C          6.34000        8.61000       -6.83200
N          7.38500        7.89500       -6.23600
C          6.80100        6.94000       -5.49800
H          7.33300        6.19700       -4.91700
N          5.46300        7.03500       -5.57900
H          4.80700        6.43300       -5.10200
C          5.15200        8.08700       -6.41300
H          4.16800        8.44800       -6.68100
C          5.70300       11.56000       -6.10200
O          4.64700       11.89800       -6.62500
N          5.82200       11.57000       -4.78000
H          6.67900       11.26200       -4.33900
H          5.04000       11.88200       -4.23100
