62
0 1
H          4.03400        6.07600        2.61900
C          3.12500        5.47800        2.61800
H          2.26300        6.11400        2.42900
H          3.01100        4.98700        3.58200
C          3.22400        4.42800        1.53700
O          4.24300        4.34100        0.86200
N          2.15600        3.64800        1.36700
H          1.35100        3.84600        1.94400
C          2.08600        2.50200        0.44000
H          2.91200        2.57000       -0.27000
C          2.23700        1.18800        1.23600
H          1.43200        1.14300        1.97100
H          2.10100        0.34800        0.55300
C          3.58200        0.99200        1.96500
H          3.77000        1.83500        2.62900
C          3.51900       -0.27600        2.81800
H          3.34400       -1.14600        2.18500
H          4.45900       -0.40500        3.35400
H          2.71200       -0.19200        3.54600
C          4.75500        0.84600        0.99300
H          4.88900        1.76800        0.42900
H          5.67200        0.65500        1.55000
H          4.57200        0.02300        0.30300
C          0.81000        2.47000       -0.42600
O          0.67300        1.60200       -1.28100
N         -0.11700        3.41200       -0.23600
H          0.06300        4.11300        0.47200
C         -1.41100        3.48400       -0.93500
H         -1.93700        2.54300       -0.76700
C         -2.25300        4.61600       -0.31000
H         -3.23800        4.58000       -0.77700
H         -2.40000        4.41100        0.75200
C         -1.71100        6.05400       -0.48100
H         -1.40500        6.21800       -1.51400
H         -2.53100        6.74300       -0.28000
C         -0.56000        6.44600        0.45100
O         -0.14200        5.72600        1.34700
N          0.01000        7.61600        0.27400
H          0.76200        7.85400        0.89200
H         -0.23200        8.18100       -0.52000
C         -1.29500        3.65100       -2.46500
O         -2.21300        3.30400       -3.19900
N         -0.16500        4.17300       -2.94100
H          0.51700        4.48800       -2.26500
C          0.22400        4.30100       -4.35300
H         -0.66900        4.46600       -4.95900
C          1.13800        5.53600       -4.48200
H          1.67200        5.52200       -5.43200
H          0.50900        6.42600       -4.47400
C          2.12400        5.66300       -3.34600
N          1.87200        6.36100       -2.16200
C          2.90300        6.09200       -1.35200
H          3.01500        6.48000       -0.34800
N          3.75100        5.23300       -1.93700
H          4.55000        4.81500       -1.47000
C          3.27500        4.94500       -3.19800
H          3.68600        4.24400       -3.91300
C          0.89600        3.03900       -4.93100
O          1.33600        3.04200       -6.07400
N          1.02200        1.95200       -4.18100
H          1.45300        1.13900       -4.58700
H          0.67100        1.93600       -3.23200
