58
0 1
H         17.97800        8.74300       -5.46000
C         18.10000        7.79100       -4.94800
H         17.26100        7.63000       -4.27200
H         19.03000        7.78700       -4.38200
C         18.13000        6.67400       -5.96400
O         17.29200        5.78100       -5.92400
N         19.10200        6.72100       -6.87600
H         19.77000        7.47200       -6.82300
C         19.29500        5.69000       -7.90100
H         18.37300        5.62200       -8.47900
C         20.43600        6.12400       -8.84200
H         20.16900        7.07600       -9.30200
H         21.33200        6.28100       -8.23900
C         20.78400        5.11400       -9.95600
H         21.06100        4.15900       -9.51200
C         19.61900        4.89400      -10.92400
H         18.77500        4.43800      -10.41200
H         19.30900        5.84300      -11.36300
H         19.93100        4.21800      -11.72100
C         21.97700        5.63100      -10.75900
H         22.83400        5.76700      -10.09800
H         22.24500        4.90400      -11.52600
H         21.73200        6.58100      -11.23400
C         19.55900        4.31500       -7.26100
O         20.38100        4.19200       -6.35100
N         18.87600        3.28000       -7.75000
H         18.23100        3.44300       -8.51000
C         18.98700        1.89100       -7.29700
H         20.01300        1.72200       -6.98200
C         18.02300        1.65300       -6.11300
H         17.06000        2.11700       -6.33200
H         17.84600        0.58300       -6.00200
C         18.54100        2.18000       -4.76500
H         18.61700        3.26600       -4.78400
H         17.82200        1.92000       -3.98900
C         19.88400        1.55300       -4.39300
O         20.00700        0.37900       -4.06100
O         20.96500        2.35800       -4.53500
H         20.75400        3.15500       -5.05500
C         18.68800        0.91100       -8.45100
O         17.98600        1.30100       -9.38700
N         19.16400       -0.35200       -8.39100
C         18.91600       -1.33300       -9.43800
H         19.10200       -0.91100      -10.42700
H         17.88400       -1.68100       -9.36900
C         19.87400       -2.49200       -9.16900
H         20.83200       -2.29800       -9.65500
H         19.46000       -3.44500       -9.49800
C         20.04400       -2.43800       -7.65100
H         20.97200       -2.91400       -7.33000
H         19.18900       -2.91800       -7.17300
C         20.02200       -0.93600       -7.35000
H         19.58100       -0.79100       -6.36500
C         21.44500       -0.35200       -7.34500
O         21.98000        0.03700       -8.37600
N         22.07700       -0.27400       -6.18300
H         22.99900        0.13000       -6.16700
H         21.59700       -0.50300       -5.32300
