70
0 1
H          7.34000        9.47300        2.43400
C          7.03500        8.47500        2.12400
H          5.99100        8.49400        1.81600
H          7.16600        7.78100        2.95100
C          7.89100        8.03800        0.95900
O          8.74600        8.79100        0.50400
N          7.66600        6.81200        0.48700
H          6.92900        6.27800        0.91600
C          8.38800        6.18600       -0.63100
H          9.42300        6.52500       -0.60800
C          8.39500        4.65100       -0.45700
H          7.36500        4.29600       -0.49300
H          8.92500        4.21300       -1.30600
C          9.05100        4.13500        0.83800
H          8.52900        4.54800        1.70100
C          8.93500        2.61200        0.89700
H          9.36500        2.24400        1.82900
H          7.88500        2.32000        0.85800
H          9.46300        2.16300        0.05500
C         10.53300        4.50200        0.93400
H         11.06400        4.14600        0.05100
H         10.64700        5.58200        1.01300
H         10.97000        4.04900        1.82400
C          7.83600        6.62600       -2.00200
O          7.38400        5.81200       -2.80200
N          7.84300        7.93200       -2.27300
H          8.21700        8.54900       -1.56300
C          7.33000        8.53900       -3.51400
H          6.39800        8.03200       -3.76700
C          6.99400       10.01700       -3.24500
H          7.92600       10.56500       -3.09400
H          6.50800       10.43500       -4.12700
C          6.08200       10.24600       -2.05200
C          4.72800        9.86100       -2.12000
H          4.34200        9.41400       -3.02600
C          3.87900       10.05300       -1.01300
H          2.84500        9.75300       -1.06800
C          4.38700       10.63800        0.16800
O          3.58100       10.81900        1.24500
H          2.66200       10.64300        1.03900
C          5.74000       11.02800        0.23400
H          6.11800       11.47600        1.14100
C          6.58700       10.82800       -0.87200
H          7.62700       11.11800       -0.81100
C          8.26200        8.35900       -4.73700
O          8.35300        9.23700       -5.59300
N          9.01800        7.26000       -4.79000
H          8.84800        6.53800       -4.09900
C         10.15100        7.04800       -5.69700
H          9.86700        7.36700       -6.70100
C         11.35700        7.89600       -5.23700
H         12.27700        7.48900       -5.65700
H         11.23800        8.89800       -5.65200
C         11.50800        8.02400       -3.72800
C         12.05600        6.96900       -2.97100
H         12.41800        6.07800       -3.46500
C         12.08500        7.05200       -1.56600
H         12.47600        6.23800       -0.97400
C         11.55400        8.18500       -0.91700
O         11.46400        8.21600        0.43600
H         10.63700        8.64900        0.69100
C         11.02300        9.25000       -1.67400
H         10.61000       10.11100       -1.17100
C         11.01200        9.17200       -3.07800
H         10.58200        9.97800       -3.66000
C         10.53100        5.56000       -5.76400
O         10.37200        4.81000       -4.80800
N         11.07500        5.11000       -6.88700
H         11.32800        4.13600       -6.93000
H         11.21300        5.72700       -7.67000
