65
0 1
H         17.88200        6.92500        4.54800
C         17.64800        7.12000        3.50300
H         18.51200        6.88100        2.88400
H         17.38300        8.16700        3.37100
C         16.48800        6.25000        3.08100
O         16.64400        5.38200        2.23200
N         15.32300        6.48400        3.68300
H         15.28900        7.23100        4.35700
C         14.08500        5.72600        3.45500
H         14.33400        4.66700        3.36800
C         13.13800        5.88700        4.66800
H         13.04800        6.94300        4.92800
H         12.15000        5.54400        4.36100
C         13.51500        5.06800        5.92000
H         13.66200        4.02600        5.63300
C         14.77500        5.56300        6.63700
H         14.69200        6.62800        6.85200
H         14.90300        5.01800        7.57200
H         15.65300        5.37100        6.02300
C         12.36300        5.12800        6.92500
H         12.19200        6.15800        7.24000
H         11.45500        4.73600        6.46600
H         12.59900        4.51700        7.79600
C         13.42100        6.11700        2.11600
O         12.32000        6.67400        2.08400
N         14.10100        5.84100        1.00200
H         15.02200        5.43100        1.11800
C         13.65200        6.13400       -0.36300
H         12.86900        6.89100       -0.32500
C         14.82300        6.73000       -1.16200
H         15.59700        5.96900       -1.27700
H         14.46900        6.98900       -2.16000
C         15.44100        7.96800       -0.53600
C         14.71200        9.17300       -0.48700
H         13.71500        9.21700       -0.90200
C         15.27600       10.32000        0.10600
H         14.71200       11.23900        0.14700
C         16.57900       10.26100        0.64900
O         17.13000       11.35900        1.22900
H         16.57800       12.13400        1.12600
C         17.31000        9.05800        0.59500
H         18.30700        9.02600        1.00700
C         16.74000        7.91200        0.00800
H         17.29900        6.98500       -0.01900
C         13.06000        4.88400       -1.03800
O         13.76800        4.10300       -1.67000
N         11.74400        4.68800       -0.91000
H         11.22100        5.35500       -0.35800
C         11.00500        3.52400       -1.42900
H         11.62500        2.63800       -1.27900
C          9.69800        3.31400       -0.62800
H          9.09000        4.21900       -0.67800
H          9.13100        2.51400       -1.10500
C          9.89700        2.89700        0.84500
H          8.91600        2.69600        1.27500
H         10.48000        1.97700        0.88000
C         10.58100        3.94200        1.72400
O         11.50600        3.70400        2.48600
O         10.16500        5.21400        1.53900
H         10.79700        5.78300        2.01200
C         10.75400        3.61400       -2.95400
O          9.62600        3.54600       -3.42700
N         11.79500        3.80500       -3.75300
H         12.72300        3.85900       -3.35300
H         11.63700        3.87300       -4.74400
