63
0 1
H         12.28400        6.60200        0.40700
C         12.86700        7.42800        0.00500
H         13.90400        7.12600       -0.12600
H         12.82100        8.27100        0.69400
C         12.29100        7.85100       -1.32400
O         11.84200        8.98300       -1.46600
N         12.30600        6.93700       -2.29600
H         12.74500        6.05300       -2.09500
C         11.81400        7.16200       -3.66700
H         11.35900        8.15200       -3.71900
C         12.99200        7.15100       -4.66600
H         13.48900        6.18000       -4.64300
H         12.56300        7.26500       -5.66200
C         14.02800        8.27900       -4.46500
H         13.54400        9.14600       -4.01400
C         15.20900        7.84500       -3.58900
H         15.71900        6.99400       -4.04100
H         15.91200        8.67200       -3.49100
H         14.86600        7.57400       -2.59400
C         14.61000        8.71000       -5.81300
H         13.81200        9.08700       -6.45300
H         15.33700        9.50800       -5.66500
H         15.09400        7.86400       -6.30200
C         10.69600        6.18500       -4.09400
O         10.22500        6.24700       -5.22600
N         10.24800        5.29300       -3.20200
H         10.59700        5.36000       -2.26000
C          9.22500        4.27200       -3.49900
H          9.53300        3.71700       -4.38600
C          9.11400        3.29500       -2.31200
H          8.75800        3.85000       -1.44200
H          8.35900        2.54600       -2.55700
C         10.41700        2.56600       -1.92900
H         11.17400        3.29800       -1.64600
C         10.16300        1.66000       -0.72500
H          9.79600        2.25200        0.11300
H          9.42300        0.90000       -0.97700
H         11.09100        1.17000       -0.42700
C         10.96700        1.70600       -3.06800
H         11.25800        2.33600       -3.90800
H         11.84700        1.16000       -2.72900
H         10.21000        0.99400       -3.39800
C          7.84300        4.86900       -3.83200
O          7.03200        4.22400       -4.48700
N          7.59200        6.10700       -3.40500
H          8.30200        6.54200       -2.83000
C          6.41700        6.91300       -3.74400
H          5.54300        6.26200       -3.67600
C          6.24900        8.02900       -2.68800
H          5.25400        8.45500       -2.82700
H          6.26700        7.58900       -1.69000
C          7.25600        9.20100       -2.74600
H          7.33900        9.57400       -3.76700
H          6.85800       10.01600       -2.14200
C          8.66000        8.89600       -2.21600
O          9.03300        7.82500       -1.74900
O          9.52000        9.92800       -2.31400
H         10.37700        9.63100       -1.95000
C          6.42600        7.47500       -5.18400
O          5.50700        8.18600       -5.57000
N          7.45300        7.22600       -5.98900
H          7.42900        7.60100       -6.92200
H          8.22900        6.65700       -5.67700
