61
0 1
H          9.79100        4.17000        1.94200
C         10.45900        4.96300        1.61200
H         11.28800        4.53900        1.04800
H         10.85000        5.49800        2.47800
C          9.70300        5.93200        0.73600
O          9.58900        7.10500        1.06700
N          9.15800        5.44100       -0.37500
H          9.29200        4.46100       -0.57000
C          8.44300        6.24100       -1.38300
H          8.95000        7.20400       -1.42800
C          8.63700        5.56200       -2.76000
H          9.69500        5.31400       -2.85700
H          8.07700        4.62500       -2.76600
C          8.23700        6.37100       -4.01600
H          7.15500        6.45900       -4.08500
C          8.85100        7.77300       -4.04400
H          8.62300        8.25500       -4.99500
H          8.42100        8.38300       -3.25000
H          9.93200        7.71500       -3.92000
C          8.71600        5.62600       -5.26300
H          8.28500        4.62500       -5.28100
H          8.39000        6.15900       -6.15600
H          9.80400        5.55200       -5.26800
C          6.97100        6.55700       -1.00700
O          6.12400        6.72900       -1.87800
N          6.63100        6.62200        0.28700
H          7.36800        6.58800        0.97700
C          5.24300        6.83900        0.74300
H          4.61400        6.12200        0.21300
C          5.11100        6.53000        2.24800
H          4.06600        6.28300        2.44300
H          5.70300        5.64800        2.49300
C          5.48500        7.68100        3.19600
H          4.82000        8.52300        3.00200
H          5.29500        7.35700        4.21900
S          7.19200        8.28300        3.10400
C          8.07600        6.93200        3.92600
H          7.71100        6.82400        4.94800
H          7.92400        6.00100        3.38200
H          9.14100        7.16500        3.94800
C          4.68500        8.23300        0.39500
O          3.47300        8.41800        0.37600
N          5.55900        9.20100        0.10700
H          6.54100        8.96400        0.16200
C          5.21900       10.53800       -0.38800
H          4.22200       10.78300       -0.01900
C          6.18700       11.58100        0.21500
H          5.77500       12.56600       -0.00900
H          6.19400       11.48200        1.30200
C          7.64000       11.56600       -0.30400
H          7.66300       11.36600       -1.37400
H          8.06700       12.55600       -0.14500
C          8.54000       10.56700        0.42100
O          9.30300       10.84600        1.33100
O          8.44100        9.29400       -0.01300
H          9.03400        8.76300        0.54900
C          5.13200       10.62000       -1.92900
O          5.02200       11.70500       -2.48700
N          5.21600        9.51000       -2.65500
H          5.32000        8.60800       -2.21000
H          5.15300        9.59000       -3.65500
