66
0 1
H         14.12700       13.79400      -13.81100
C         13.08700       14.09200      -13.67700
H         12.44600       13.46200      -14.29000
H         12.97100       15.13600      -13.96500
C         12.71600       13.93100      -12.22300
O         13.54000       13.51600      -11.42000
N         11.45900       14.23100      -11.89200
H         10.84400       14.55000      -12.62200
C         10.92300       14.20300      -10.52000
H         11.59200       14.79300       -9.89200
C          9.54600       14.90400      -10.56200
H          9.68800       15.89900      -10.98800
H          8.90100       14.34600      -11.24000
C          8.79600       15.06200       -9.22400
H          8.53300       14.08400       -8.82500
C          9.61000       15.83700       -8.18500
H          9.90800       16.80700       -8.58300
H          9.01300       15.98300       -7.28500
H         10.49700       15.26700       -7.91000
C          7.49700       15.83500       -9.46100
H          7.71600       16.83800       -9.82800
H          6.88700       15.30900      -10.19400
H          6.93800       15.90700       -8.52900
C         10.86700       12.79300       -9.88500
O         10.64200       12.66400       -8.68400
N         11.10300       11.73600      -10.66900
H         11.34200       11.92000      -11.62800
C         11.00500       10.33500      -10.24300
H         10.85800       10.30400       -9.16300
C          9.74900        9.70300      -10.87300
H          9.94100        9.51800      -11.93100
H          9.56500        8.73800      -10.40000
C          8.50300       10.53600      -10.78900
C          7.64200       10.56600       -9.74800
H          7.73800        9.96700       -8.85100
N          6.65200       11.49900       -9.99000
H          5.90800       11.69900       -9.33800
C          6.83700       12.13400      -11.20000
C          6.13200       13.14200      -11.87200
H          5.24000       13.56700      -11.43500
C          6.60000       13.59000      -13.11900
H          6.06400       14.36300      -13.65400
C          7.76000       13.02200      -13.67800
H          8.10600       13.35900      -14.64500
C          8.45900       12.00700      -12.99500
H          9.33800       11.56500      -13.43900
C          8.01700       11.53700      -11.73700
C         12.30700        9.55600      -10.53400
O         12.31700        8.69100      -11.41100
N         13.42700        9.86200       -9.84500
C         13.54700       10.89400       -8.81800
H         12.81500       10.75600       -8.02100
H         13.42700       11.87700       -9.27300
C         14.96500       10.78100       -8.25900
H         14.98500       10.06200       -7.43800
H         15.35000       11.74800       -7.93600
C         15.74100       10.22900       -9.45300
H         16.67800        9.75900       -9.15400
H         15.93900       11.03800      -10.15800
C         14.74000        9.24500      -10.07500
H         14.93100        9.18500      -11.14700
C         14.83400        7.81400       -9.50000
O         15.63100        7.51700       -8.61800
N         14.00300        6.89500       -9.96900
H         13.33300        7.15200      -10.68200
H         14.05500        5.96300       -9.59400
