70
0 1
H          3.95400       12.46200        1.83400
C          4.01100       12.08900        0.81400
H          3.95500       12.92400        0.11700
H          3.18900       11.40100        0.62300
C          5.32400       11.37000        0.61500
O          6.11900       11.75700       -0.23400
N          5.55400       10.31300        1.39300
H          4.84100       10.04600        2.05300
C          6.76200        9.48100        1.31700
H          7.61400       10.14800        1.17200
C          6.95400        8.75800        2.67100
H          6.60100        9.42000        3.46400
H          6.33900        7.85800        2.70400
C          8.41700        8.40600        3.01000
H          8.99500        9.32900        3.05400
C          8.47300        7.74100        4.38600
H          8.04000        8.40300        5.13600
H          7.91900        6.80200        4.37100
H          9.51000        7.54000        4.65800
C          9.08900        7.46800        2.00700
H         10.08600        7.20300        2.35800
H          8.49800        6.55800        1.89300
H          9.18800        7.96400        1.04500
C          6.69600        8.54200        0.09100
O          6.47800        7.33900        0.21200
N          6.86800        9.10400       -1.10800
H          6.97800       10.11100       -1.13500
C          6.68200        8.40800       -2.39200
H          5.69400        7.94600       -2.37700
C          6.68300        9.44300       -3.52800
H          6.49500        8.92800       -4.47100
H          5.84700       10.12700       -3.37100
C          7.95900       10.25600       -3.66400
C          8.05200       11.53100       -3.07000
H          7.21100       11.93700       -2.52300
C          9.23400       12.28600       -3.19200
H          9.30100       13.25700       -2.72500
C         10.32600       11.77000       -3.92100
O         11.47500       12.49000       -4.02600
H         11.31600       13.42200       -3.86200
C         10.22600       10.50100       -4.53000
H         11.06200       10.11100       -5.09200
C          9.04700        9.74300       -4.39600
H          8.97900        8.76700       -4.85800
C          7.67300        7.25800       -2.67000
O          7.45200        6.48100       -3.59400
N          8.73200        7.10700       -1.86600
H          8.87900        7.79900       -1.15400
C          9.61500        5.92900       -1.87800
H          9.82300        5.66600       -2.91600
C         10.95000        6.27800       -1.20100
H         10.77100        6.51400       -0.15200
H         11.59400        5.39800       -1.22400
C         11.70000        7.42500       -1.85100
C         12.48900        7.18100       -2.99200
H         12.56600        6.17800       -3.39100
C         13.16600        8.24100       -3.62300
H         13.76100        8.06800       -4.50700
C         13.04700        9.55100       -3.11800
O         13.62800       10.58400       -3.77800
H         13.04400       11.35400       -3.78900
C         12.26900        9.79500       -1.96500
H         12.18200       10.80100       -1.58300
C         11.60100        8.73100       -1.33000
H         11.00700        8.92100       -0.44900
C          8.99300        4.67800       -1.22200
O          9.57000        3.59800       -1.27900
N          7.83800        4.77500       -0.57200
H          7.36100        5.66400       -0.50200
H          7.45000        3.94100       -0.16600
