61
0 1
H          0.75900        6.55400       -1.27100
C          1.61900        6.93100       -1.82300
H          2.03600        6.13400       -2.43600
H          2.36900        7.29500       -1.12300
C          1.17100        8.06600       -2.71200
O         -0.00500        8.40600       -2.72900
N          2.11200        8.64400       -3.45900
H          3.05200        8.29200       -3.38300
C          1.88600        9.76300       -4.38600
H          1.19200       10.46200       -3.91900
C          3.21400       10.51100       -4.65700
H          3.94100        9.80500       -5.06000
H          3.01900       11.24100       -5.44500
C          3.87200       11.29000       -3.49800
H          4.69900       11.85400       -3.93000
C          2.91900       12.29600       -2.85200
H          2.11900       11.78000       -2.32200
H          3.46800       12.91700       -2.14500
H          2.48800       12.93900       -3.62000
C          4.46600       10.40400       -2.40000
H          5.07900       11.01800       -1.73900
H          3.67800        9.94400       -1.80600
H          5.09900        9.63700       -2.84500
C          1.19600        9.29400       -5.68500
O          1.76200        9.36000       -6.77500
N         -0.02300        8.76700       -5.56000
H         -0.41800        8.72900       -4.62600
C         -0.85000        8.33400       -6.68800
H         -0.21600        7.74900       -7.35100
C         -1.99900        7.44100       -6.17900
H         -2.62100        8.03700       -5.50800
H         -2.61700        7.15000       -7.03000
C         -1.55800        6.16600       -5.43300
H         -0.95900        6.43500       -4.56400
C         -2.79300        5.40800       -4.94500
H         -3.41000        5.10500       -5.79100
H         -2.48600        4.52400       -4.38700
H         -3.37700        6.04900       -4.28400
C         -0.74300        5.22300       -6.32100
H          0.20100        5.69200       -6.59600
H         -0.51900        4.30700       -5.77500
H         -1.30400        4.97600       -7.22200
C         -1.39900        9.54200       -7.48200
O         -1.74000       10.55900       -6.87400
N         -1.54700        9.44100       -8.81900
C         -1.14300        8.30700       -9.64300
H         -1.60900        7.38100       -9.30300
H         -0.05600        8.21300       -9.61700
C         -1.59200        8.63000      -11.06800
H         -2.60800        8.26600      -11.22700
H         -0.91200        8.21200      -11.81100
C         -1.57900       10.15700      -11.08300
H         -2.20900       10.56700      -11.87300
H         -0.55400       10.50900      -11.20500
C         -2.07300       10.51200       -9.67300
H         -1.63300       11.46500       -9.37700
C         -3.60700       10.64500       -9.56400
O         -4.35000       10.41000      -10.51000
N         -4.12100       10.99700       -8.39400
H         -5.12000       11.07900       -8.31100
H         -3.50100       11.15100       -7.60900
