59
0 1
H          8.59400       -4.41100        2.58900
C          7.62000       -4.47300        2.10500
H          6.83700       -4.48300        2.86100
H          7.56900       -5.37700        1.50100
C          7.43900       -3.26600        1.21600
O          8.31800       -2.41700        1.14000
N          6.29500       -3.19000        0.53600
H          5.60500       -3.90600        0.68400
C          5.93000       -2.02500       -0.27700
H          6.81000       -1.73200       -0.84700
C          4.79800       -2.39200       -1.25700
H          3.93300       -2.71500       -0.67600
H          4.50700       -1.49400       -1.80400
C          5.14500       -3.49500       -2.27600
H          5.42800       -4.40500       -1.74800
C          3.91600       -3.80100       -3.13200
H          3.09300       -4.12300       -2.49500
H          3.61400       -2.91400       -3.68900
H          4.14600       -4.60300       -3.83400
C          6.28700       -3.08900       -3.21100
H          6.44400       -3.86600       -3.95800
H          6.04600       -2.15200       -3.71400
H          7.21100       -2.97200       -2.64600
C          5.51100       -0.83200        0.60900
O          4.82300       -1.04700        1.61300
N          5.85100        0.41900        0.23700
C          6.59800        0.80200       -0.95400
H          6.26700        0.24900       -1.83400
H          7.66300        0.63600       -0.78100
C          6.33100        2.29400       -1.15200
H          5.41700        2.42900       -1.73300
H          7.17100        2.79500       -1.63300
C          6.11300        2.79000        0.27700
H          5.52300        3.70800        0.30100
H          7.07900        2.94600        0.75800
C          5.39200        1.61500        0.94500
H          5.69200        1.55700        1.99200
C          3.86400        1.76200        0.87800
O          3.22600        1.30100       -0.06600
N          3.28300        2.41800        1.88500
H          3.87000        2.85400        2.57900
C          1.83200        2.52300        2.09000
H          1.31200        2.11700        1.22100
C          1.41900        1.70200        3.32800
H          1.88800        2.13500        4.21300
H          0.33800        1.77500        3.45400
C          1.80400        0.21400        3.25300
H          2.88900        0.11800        3.23900
H          1.44400       -0.29100        4.14900
C          1.21000       -0.49200        2.03800
O          0.05300       -0.32100        1.69200
N          1.97100       -1.30600        1.34600
H          2.96700       -1.34000        1.53900
H          1.56800       -1.66800        0.50400
C          1.39000        3.98500        2.23900
O          2.15400        4.84000        2.67500
N          0.14300        4.29100        1.90800
H         -0.15600        5.24700        2.01100
H         -0.47800        3.57800        1.56000
