62
0 1
H          4.05800       17.01400        1.27100
C          4.33000       16.45300        0.37800
H          5.34800       16.08000        0.47900
H          4.25500       17.10000       -0.49400
C          3.38400       15.28700        0.22200
O          2.50200       15.09900        1.05100
N          3.57400       14.50900       -0.84500
H          4.33400       14.75400       -1.46000
C          2.76800       13.32700       -1.20500
H          1.94200       13.24200       -0.50100
C          2.15600       13.51700       -2.61000
H          2.97000       13.56600       -3.33500
H          1.55400       12.63800       -2.84700
C          1.26700       14.76400       -2.77900
H          1.85200       15.66200       -2.58000
C          0.76100       14.83800       -4.22000
H          0.16200       15.73900       -4.35500
H          1.60700       14.87600       -4.90600
H          0.15100       13.96400       -4.44900
C          0.05100       14.74900       -1.84900
H         -0.52100       13.83300       -1.99300
H          0.37300       14.81800       -0.81100
H         -0.58600       15.60800       -2.06200
C          3.54600       12.00000       -1.06600
O          3.18700       10.98800       -1.66600
N          4.62500       12.00600       -0.28000
H          4.80000       12.86300        0.23300
C          5.59000       10.92000       -0.02100
H          5.90100       10.49600       -0.97700
C          6.82000       11.56300        0.64800
H          7.55500       10.79700        0.89800
H          7.28800       12.24400       -0.06300
C          6.46700       12.35200        1.88800
N          5.90400       13.63300        1.88900
C          5.65600       13.92300        3.17500
H          5.21400       14.84900        3.52100
N          6.01600       12.89600        3.96600
H          5.91500       12.86600        4.97100
C          6.52100       11.89300        3.17000
H          6.85400       10.90800        3.47600
C          5.02800        9.74100        0.80700
O          5.71100        9.18000        1.66000
N          3.76200        9.39200        0.58300
H          3.28800        9.89400       -0.15600
C          2.96900        8.43700        1.36900
H          3.59400        7.59200        1.66000
C          2.48000        9.14400        2.64700
H          1.74900        8.51200        3.15400
H          3.32800        9.27100        3.31900
C          1.86500       10.50000        2.39600
N          0.60300       10.73400        1.85100
C          0.50000       12.06200        1.71100
H         -0.36000       12.57200        1.29800
N          1.63100       12.66400        2.11600
H          1.83300       13.66000        2.01700
C          2.50700       11.69500        2.54500
H          3.52400       11.83400        2.88500
C          1.77800        7.85300        0.58900
O          1.25700        6.80900        0.95900
N          1.35200        8.45800       -0.51600
H          0.56700        8.05600       -0.99800
H          1.76600        9.32400       -0.82100
