66
0 1
H          3.12600        9.49400       -4.31600
C          3.74100        8.62300       -4.09600
H          3.09300        7.77700       -3.86800
H          4.38900        8.82800       -3.24600
C          4.58500        8.28400       -5.30100
O          4.54900        7.15900       -5.78100
N          5.36200        9.26000       -5.77300
H          5.33500       10.14500       -5.29500
C          6.12600        9.18900       -7.02700
H          5.39400        9.20700       -7.83600
C          6.98100       10.46800       -7.15100
H          6.31700       11.33400       -7.12400
H          7.64100       10.53100       -6.28600
C          7.84900       10.55600       -8.42400
H          8.53000        9.70600       -8.46400
C          7.00800       10.58600       -9.70100
H          6.47200        9.64400       -9.81800
H          6.29500       11.41000       -9.66700
H          7.65900       10.71000      -10.56600
C          8.68700       11.83300       -8.37800
H          9.32200       11.82800       -7.49200
H          9.32600       11.88400       -9.26000
H          8.04000       12.71000       -8.35400
C          6.95200        7.89600       -7.24800
O          6.81800        7.32600       -8.33000
N          7.76400        7.38600       -6.29300
C          8.06700        7.93900       -4.97700
H          7.16900        8.15000       -4.40000
H          8.66800        8.84100       -5.09000
C          8.88200        6.87300       -4.24700
H          8.21200        6.18400       -3.73800
H          9.58800        7.31300       -3.54100
C          9.59100        6.14300       -5.38100
H          9.87600        5.13000       -5.09300
H         10.47300        6.71100       -5.68300
C          8.55800        6.16800       -6.51200
H          9.08700        6.25400       -7.46200
C          7.73300        4.86600       -6.57900
O          8.31000        3.80600       -6.80900
N          6.40800        4.93000       -6.40700
H          5.99000        5.82600       -6.19000
C          5.48400        3.79500       -6.54700
H          6.05300        2.92200       -6.86800
C          4.86800        3.45600       -5.18100
H          4.12100        4.21400       -4.94300
H          4.35000        2.49900       -5.25600
C          5.84000        3.38700       -4.03900
C          6.71900        2.38400       -3.81800
H          6.80400        1.49600       -4.43400
N          7.50900        2.68900       -2.72700
H          8.24600        2.08600       -2.39200
C          7.19200        3.92200       -2.20000
C          7.70800        4.67200       -1.13200
H          8.51900        4.28200       -0.53500
C          7.15200        5.93200       -0.84900
H          7.53200        6.51900       -0.02400
C          6.09300        6.42300       -1.63400
H          5.66000        7.38700       -1.40500
C          5.58600        5.66200       -2.70600
H          4.77000        6.03600       -3.30400
C          6.12100        4.39300       -3.01800
C          4.41500        4.01700       -7.63400
O          3.49000        3.22600       -7.77600
N          4.50800        5.08100       -8.42400
H          5.27400        5.73000       -8.31200
H          3.80200        5.21800       -9.12600
