62
0 1
H         13.41600        9.91900        1.47400
C         12.88400        9.96800        2.42200
H         12.51200       10.97700        2.58900
H         13.55500        9.68800        3.23300
C         11.72100        9.00500        2.39500
O         11.65800        8.09500        3.21000
N         10.80600        9.20600        1.44800
H         10.96900        9.94300        0.77900
C          9.62700        8.36300        1.21900
H          9.81400        7.37500        1.64100
C          8.38700        8.97200        1.90700
H          8.30500       10.01300        1.59400
H          7.49500        8.45100        1.55300
C          8.39500        8.91000        3.44800
H          9.30300        9.36900        3.83400
C          7.20400        9.69300        4.00300
H          6.27000        9.27000        3.63100
H          7.21000        9.64500        5.09200
H          7.28300       10.73800        3.70500
C          8.29000        7.47400        3.96700
H          8.22400        7.48100        5.05500
H          7.40800        6.98400        3.55500
H          9.18400        6.91400        3.69400
C          9.39200        8.15500       -0.28500
O          9.83400        8.94800       -1.11400
N          8.69200        7.07200       -0.63000
H          8.28700        6.51800        0.11000
C          8.54300        6.56500       -2.00200
H          9.54400        6.45700       -2.42400
C          7.90600        5.16200       -1.95900
H          7.89900        4.76600       -2.97500
H          8.53200        4.50100       -1.36000
C          6.46100        5.11800       -1.42700
H          5.86300        5.84500       -1.97700
H          6.05100        4.13300       -1.65200
S          6.22900        5.41700        0.35400
C          6.96700        3.91800        1.06000
H          6.46200        3.03800        0.66000
H          8.02800        3.87100        0.81700
H          6.85000        3.93400        2.14400
C          7.77600        7.48700       -2.96600
O          7.88100        7.30500       -4.17500
N          7.02100        8.47000       -2.46600
H          6.94700        8.56700       -1.46100
C          6.35000        9.48900       -3.28700
H          6.11300        9.05800       -4.26000
C          5.03000        9.88000       -2.61100
H          4.46000       10.51700       -3.28800
H          4.44000        8.98100       -2.42900
C          5.21800       10.60600       -1.30400
N          5.60800       10.01900       -0.09800
C          5.65400       11.02200        0.79200
H          5.90200       10.90100        1.83600
N          5.34600       12.19200        0.20700
H          5.31700       13.09000        0.66700
C          5.07200       11.94900       -1.12000
H          4.80400       12.66800       -1.88200
C          7.22000       10.72900       -3.57000
O          6.76200       11.67400       -4.20000
N          8.46300       10.77900       -3.10600
H          8.84000       10.01000       -2.56700
H          9.01500       11.59400       -3.30700
