70
0 1
H          7.49700       13.72200        9.71400
C          6.57700       13.89900        9.15700
H          6.60800       14.89600        8.72000
H          5.72700       13.81300        9.83100
C          6.45900       12.87700        8.05200
O          7.40200       12.13900        7.79000
N          5.29400       12.83800        7.40600
H          4.56700       13.46200        7.71300
C          5.00100       11.93200        6.28400
H          5.49400       10.97700        6.47700
C          3.47400       11.70500        6.26700
H          3.17400       11.32800        7.24600
H          2.98700       12.66900        6.11700
C          2.94200       10.73200        5.19300
H          3.16400       11.11900        4.20000
C          3.53000        9.32700        5.33400
H          3.35200        8.94000        6.33700
H          3.07200        8.66200        4.60200
H          4.60200        9.35300        5.13800
C          1.42200       10.62200        5.32400
H          0.96900       11.60500        5.20400
H          1.03500        9.96500        4.54500
H          1.15500       10.21600        6.30000
C          5.53300       12.44200        4.92700
O          5.69900       11.66200        3.99400
N          5.78700       13.74800        4.80000
H          5.70800       14.33700        5.61500
C          6.20100       14.39800        3.55400
H          6.84700       13.71400        3.00200
C          4.95800       14.69100        2.69800
H          4.46200       13.74800        2.46200
H          4.26000       15.28800        3.28700
C          5.25100       15.41300        1.39700
C          4.91600       16.77400        1.25100
H          4.44400       17.30600        2.06700
C          5.18500       17.44300        0.04100
H          4.92100       18.48400       -0.07100
C          5.80400       16.75100       -1.02300
O          6.08400       17.39100       -2.18700
H          5.64500       18.24000       -2.25200
C          6.15900       15.39500       -0.86700
H          6.63100       14.87600       -1.68800
C          5.87600       14.72500        0.33900
H          6.12300       13.67600        0.44600
C          7.00000       15.67800        3.83500
O          6.76000       16.35100        4.83600
N          7.93300       16.01000        2.93500
H          8.03100       15.41300        2.13000
C          8.94900       17.05900        3.12200
H          8.64100       17.70600        3.94500
C         10.28200       16.39800        3.52200
H         10.63000       15.77300        2.69900
H         11.03000       17.17800        3.67400
C         10.20900       15.55700        4.78400
C         10.44800       16.15400        6.03800
H         10.70400       17.20300        6.09700
C         10.34100       15.39000        7.21600
H         10.51700       15.83700        8.18200
C          9.97700       14.03100        7.14200
O          9.82000       13.30800        8.27800
H          9.11900       12.64800        8.15300
C          9.73700       13.43100        5.88700
H          9.45400       12.38900        5.83900
C          9.87000       14.19000        4.71000
H          9.69600       13.72500        3.75100
C          9.12300       17.97700        1.89500
O         10.02100       18.80800        1.85100
N          8.29300       17.85200        0.86800
H          8.43600       18.44600        0.06800
H          7.52600       17.19900        0.90600
