62
0 1
H          6.53800        8.98600        5.89800
C          6.72100        8.62600        4.88700
H          7.11600        9.43300        4.27300
H          5.79200        8.25300        4.46000
C          7.73000        7.50500        4.94500
O          8.19300        7.14600        6.01900
N          8.08100        6.95400        3.78100
H          7.66600        7.33200        2.94600
C          8.94800        5.77100        3.64100
H          8.46400        4.93700        4.15200
C          9.02500        5.43400        2.13700
H          7.99900        5.28700        1.79400
H          9.42900        6.28800        1.59100
C          9.84300        4.17100        1.78600
H          9.85500        3.48800        2.63600
C          9.20400        3.43900        0.60300
H          9.79000        2.55200        0.36000
H          8.19600        3.12200        0.86700
H          9.16300        4.09300       -0.26800
C         11.28000        4.50900        1.37600
H         11.82200        3.59000        1.15400
H         11.28300        5.14900        0.49300
H         11.79800        5.01700        2.18700
C         10.33800        5.92700        4.29600
O         10.95100        4.93400        4.68000
N         10.81200        7.16100        4.48600
H         10.21800        7.94100        4.23700
C         12.05600        7.48100        5.19700
H         12.88100        6.94300        4.73000
C         12.31300        8.98900        5.06700
H         13.26100        9.23400        5.54700
H         12.39700        9.24700        4.01000
C         11.21800        9.82300        5.68200
N          9.98200       10.09600        5.09000
C          9.28300       10.77500        6.01300
H          8.27400       11.13900        5.87200
N         10.00300       10.92600        7.13800
H          9.68300       11.37700        7.98300
C         11.22700       10.32600        6.94900
H         12.02900       10.22400        7.66900
C         12.05500        7.07000        6.68100
O         13.12100        7.05300        7.28900
N         10.90300        6.72200        7.27000
H         10.04200        6.81800        6.74200
C         10.82700        6.13700        8.61800
H         11.46500        6.73100        9.27400
C          9.38600        6.24600        9.15000
H          9.40300        6.12600       10.23400
H          9.00100        7.24300        8.93100
C          8.43000        5.19600        8.57000
H          8.53800        5.17500        7.48700
H          8.70600        4.21400        8.95500
S          6.68500        5.49300        8.96600
C          5.93900        4.14400        8.01600
H          6.18400        4.26400        6.96000
H          6.32500        3.18900        8.37300
H          4.85700        4.16700        8.14200
C         11.34700        4.68600        8.69700
O         11.47700        4.13500        9.78300
N         11.62700        4.02500        7.57800
H         11.50300        4.46800        6.67800
H         11.97400        3.08500        7.65400
