61
0 1
H          9.15900        4.46900      -10.63400
C         10.20200        4.21700      -10.81900
H         10.76500        5.13000      -11.00300
H         10.27500        3.56200      -11.68500
C         10.77500        3.51400       -9.61100
O         11.79300        3.95200       -9.08500
N         10.12200        2.42000       -9.20500
H          9.25700        2.24000       -9.69100
C         10.48500        1.44100       -8.15700
H          9.64800        0.74700       -8.07900
C         11.71200        0.61400       -8.59700
H         12.57600        1.27900       -8.64200
H         11.91300       -0.13300       -7.82800
C         11.58700       -0.10500       -9.95500
H         11.41200        0.62600      -10.74500
C         12.89200       -0.83800      -10.26700
H         13.71700       -0.12500      -10.29100
H         13.09100       -1.59300       -9.50700
H         12.82100       -1.31900      -11.24200
C         10.45100       -1.13100       -9.97200
H          9.49100       -0.63100       -9.85600
H         10.44700       -1.65900      -10.92500
H         10.58400       -1.85100       -9.16400
C         10.66300        1.98100       -6.72300
O         10.03900        1.47100       -5.79600
N         11.49100        3.00700       -6.52500
H         11.92100        3.39900       -7.35600
C         11.86200        3.59100       -5.22800
H         12.28100        2.79900       -4.60600
C         12.98300        4.61800       -5.51000
H         13.88000        4.04900       -5.76100
H         12.73100        5.20400       -6.39400
C         13.35200        5.58700       -4.37000
H         13.33900        5.06500       -3.41300
H         14.37100        5.93800       -4.53300
C         12.45700        6.82700       -4.29700
O         11.60400        7.14600       -5.12000
O         12.69500        7.63200       -3.24500
H         12.05000        8.33700       -3.30000
C         10.67000        4.16900       -4.43100
O         10.80200        4.42900       -3.23900
N          9.51100        4.35700       -5.06400
H          9.46300        4.09200       -6.03700
C          8.29500        4.89800       -4.44500
H          8.59100        5.63300       -3.69500
C          7.44300        5.62400       -5.50600
H          6.96600        4.88900       -6.15700
H          6.65000        6.16400       -4.98600
C          8.22700        6.63900       -6.36300
H          7.51800        7.30000       -6.86200
H          8.85500        7.25100       -5.71600
C          9.07400        5.97100       -7.44600
O          8.62100        5.10900       -8.17800
N         10.35100        6.26600       -7.53900
H         10.89400        5.76200       -8.22400
H         10.78100        6.86100       -6.83700
C          7.46300        3.82700       -3.70900
O          6.47200        4.14900       -3.06400
N          7.81900        2.54900       -3.79200
H          8.62900        2.27900       -4.33200
H          7.26700        1.86800       -3.29900
