66
0 1
H          4.29200       12.82500       -1.35400
C          4.88400       13.71000       -1.58000
H          4.24000       14.58800       -1.59700
H          5.37500       13.59400       -2.54400
C          5.92700       13.88900       -0.50200
O          5.82700       14.81000        0.29700
N          6.92700       13.00900       -0.48600
H          6.94900       12.29800       -1.20600
C          8.04400       13.01900        0.46700
H          8.07600       13.98900        0.96400
C          7.82300       11.91600        1.52500
H          7.72000       10.96700        1.00300
H          8.70700       11.83300        2.15500
C          6.59700       12.10500        2.43800
H          5.69700       12.22700        1.83500
C          6.41700       10.85900        3.30800
H          7.29400       10.70900        3.93800
H          5.53700       10.97800        3.94000
H          6.27200        9.98500        2.67300
C          6.75100       13.31000        3.36700
H          5.88900       13.37300        4.03100
H          7.65900       13.21900        3.96200
H          6.78800       14.22800        2.78100
C          9.38700       12.83100       -0.26800
O          9.39700       12.31000       -1.38400
N         10.53500       13.21300        0.32900
C         10.65100       13.95800        1.57800
H         10.13300       13.46600        2.40000
H         10.25100       14.96400        1.43500
C         12.14600       14.04200        1.88400
H         12.45600       13.16600        2.45600
H         12.39900       14.96000        2.41600
C         12.77200       14.00000        0.49200
H         13.81800       13.69200        0.52000
H         12.68900       14.98500        0.03000
C         11.86600       13.01100       -0.25600
H         11.84400       13.29100       -1.31000
C         12.33100       11.53900       -0.17700
O         13.35800       11.22300        0.42100
N         11.57300       10.62000       -0.78200
H         10.73900       10.95200       -1.25900
C         11.84100        9.17400       -0.86200
H         12.19600        8.84400        0.11500
C         10.51000        8.44200       -1.13500
H         10.70900        7.39300       -1.35800
H          9.93700        8.45900       -0.20700
C          9.62800        9.01000       -2.21300
C         10.00000        9.26900       -3.48800
H         10.98600        9.07500       -3.89500
N          8.94500        9.83100       -4.17900
H          9.00500       10.11700       -5.14500
C          7.82400        9.94900       -3.38600
C          6.53200       10.44100       -3.62300
H          6.27100       10.83900       -4.59200
C          5.58000       10.38600       -2.59200
H          4.57300       10.74200       -2.76400
C          5.93200        9.84700       -1.34200
H          5.19400        9.79300       -0.55300
C          7.23500        9.35800       -1.11700
H          7.48900        8.92800       -0.16000
C          8.22100        9.40500       -2.12800
C         12.97300        8.81400       -1.85300
O         12.85400        7.92300       -2.68500
N         14.09500        9.51800       -1.80800
H         14.20200       10.23000       -1.09800
H         14.83500        9.28900       -2.45000
