68
0 1
H         -0.80100       10.84300        1.21000
C         -0.21700       10.28400        1.93700
H         -0.80600        9.45100        2.31700
H          0.07000       10.93300        2.76300
C          1.02800        9.74500        1.27400
O          1.23000        8.53500        1.23900
N          1.85800       10.64600        0.74800
H          1.63200       11.62000        0.86700
C          3.16800       10.32100        0.17600
H          3.08600        9.35000       -0.31700
C          3.53100       11.37500       -0.89100
H          2.76500       11.36500       -1.66800
H          3.51400       12.35700       -0.41500
C          4.91300       11.19000       -1.55200
H          5.68900       11.20600       -0.78800
C          5.01600        9.87600       -2.33200
H          5.99800        9.81300       -2.80100
H          4.89300        9.02300       -1.66900
H          4.24900        9.84200       -3.10600
C          5.18200       12.33800       -2.52200
H          6.17900       12.22600       -2.95100
H          4.44100       12.34200       -3.32100
H          5.14400       13.28700       -1.98700
C          4.24700       10.21100        1.26800
O          4.32100       11.04200        2.16800
N          5.11500        9.20900        1.13600
H          4.91900        8.53100        0.41100
C          6.19700        8.87400        2.07300
H          6.44500        9.77200        2.64100
C          5.71000        7.81100        3.08600
H          6.52500        7.59900        3.78000
H          4.89600        8.23700        3.67500
C          5.23900        6.47700        2.47200
H          6.00100        6.09300        1.79600
H          5.09900        5.75300        3.27400
C          3.91500        6.62600        1.72600
O          3.81100        6.69700        0.50600
O          2.84400        6.82500        2.51800
H          2.14000        7.19300        1.95500
C          7.49600        8.47300        1.34000
O          8.34800        7.79000        1.90200
N          7.65000        8.89600        0.07900
H          6.95600        9.52100       -0.30000
C          8.78000        8.55700       -0.79400
H          9.57700        8.12300       -0.18900
C          8.35300        7.51500       -1.84000
H          7.77400        8.02300       -2.61300
H          9.24900        7.11800       -2.31900
C          7.53800        6.35700       -1.34300
C          6.23900        6.13800       -1.64500
H          5.63200        6.77100       -2.27900
N          5.79700        4.99800       -1.00600
H          4.83100        4.70100       -1.02000
C          6.79700        4.41000       -0.26500
C          6.83500        3.27300        0.55500
H          5.95600        2.65900        0.67600
C          8.03200        2.94800        1.21500
H          8.08200        2.07600        1.85200
C          9.16500        3.76500        1.05200
H         10.08100        3.51900        1.57200
C          9.11300        4.90800        0.23000
H          9.98300        5.53800        0.13300
C          7.92800        5.26200       -0.45300
C          9.33400        9.81000       -1.48400
O          8.59800       10.74900       -1.77100
N         10.62300        9.83600       -1.79300
H         11.21900        9.06000       -1.56100
H         10.98100       10.65700       -2.25300
