69
0 1
H          9.72800        5.38900       -5.08600
C          8.98800        6.17200       -5.24000
H          8.65900        6.16600       -6.27700
H          9.42600        7.13900       -4.99800
C          7.80200        5.92100       -4.34100
O          6.68300        5.79600       -4.82500
N          8.04500        5.87000       -3.03100
H          8.99900        6.04700       -2.74800
C          7.03500        5.58800       -1.98900
H          6.03900        5.74400       -2.40300
C          7.15300        4.11300       -1.54700
H          8.17000        3.94800       -1.18800
H          6.47900        3.94900       -0.70500
C          6.83200        3.05900       -2.62500
H          7.45800        3.22100       -3.50200
C          7.13900        1.66400       -2.07800
H          8.19100        1.60000       -1.80000
H          6.52100        1.45800       -1.20400
H          6.93700        0.91600       -2.84500
C          5.36100        3.08400       -3.04500
H          4.71800        2.94900       -2.17600
H          5.12600        4.03300       -3.52600
H          5.17000        2.28700       -3.76300
C          7.12700        6.51500       -0.76000
O          6.21000        6.56100        0.05300
N          8.21800        7.26900       -0.62600
H          8.89000        7.21800       -1.38000
C          8.59500        8.12700        0.51000
H          8.42300        7.54300        1.41600
C         10.11600        8.40200        0.42400
H         10.44600        8.79600        1.38600
H         10.63200        7.45100        0.27800
C         10.58300        9.38600       -0.67300
H         10.24600       10.39000       -0.41900
H         11.67300        9.40900       -0.68200
C         10.10400        9.03600       -2.08000
O         10.18900        7.90400       -2.53500
N          9.52300        9.97200       -2.79400
H          9.38000       10.89200       -2.41900
H          9.11900        9.71600       -3.68200
C          7.75500        9.41800        0.67500
O          8.24200       10.41700        1.19800
N          6.50400        9.42900        0.21300
H          6.13500        8.55000       -0.13000
C          5.64200       10.61500        0.07500
H          6.26900       11.43100       -0.28100
C          4.59500       10.33600       -1.01600
H          3.84300        9.65700       -0.61200
H          4.09400       11.27100       -1.27200
C          5.15100        9.73900       -2.27500
C          4.93800        8.47400       -2.70100
H          4.31900        7.74400       -2.19000
N          5.64400        8.25200       -3.86500
H          5.67200        7.35200       -4.34700
C          6.36200        9.36300       -4.24600
C          7.23100        9.61800       -5.31700
H          7.42800        8.84800       -6.04900
C          7.80600       10.89400       -5.44100
H          8.45800       11.11700       -6.27600
C          7.51400       11.88900       -4.48900
H          7.94500       12.87500       -4.59700
C          6.65200       11.61400       -3.40800
H          6.42600       12.38900       -2.68900
C          6.05200       10.34400       -3.25700
C          5.00800       11.12200        1.38900
O          3.93200       11.70800        1.39000
N          5.63700       10.90000        2.53500
H          5.21300       11.22900        3.38600
H          6.55600       10.48500        2.52000
