61
0 1
H          6.28600        2.20300       -5.17000
C          5.46700        2.60300       -5.76300
H          5.03800        1.81100       -6.37700
H          5.82800        3.40500       -6.40500
C          4.39600        3.14300       -4.84500
O          3.26300        2.68200       -4.87900
N          4.75500        4.12300       -4.01700
H          5.69800        4.47200       -4.07200
C          3.81400        4.81100       -3.13000
H          3.22300        4.05100       -2.62100
C          4.62500        5.58800       -2.07100
H          5.28400        4.89700       -1.54300
H          5.25300        6.31200       -2.59400
C          3.76800        6.34700       -1.03900
H          2.99000        6.91100       -1.55100
C          3.10700        5.40200       -0.03500
H          2.50000        5.97500        0.66500
H          2.46500        4.68800       -0.54600
H          3.87000        4.85600        0.52100
C          4.63500        7.33500       -0.26100
H          5.06800        8.06400       -0.94600
H          4.02800        7.86700        0.47200
H          5.43700        6.80700        0.25500
C          2.88700        5.73900       -3.95100
O          3.38400        6.71500       -4.51500
N          1.55400        5.52600       -3.98600
C          0.81800        4.46100       -3.31800
H          1.08100        4.38400       -2.26400
H          1.00900        3.51400       -3.82500
C         -0.65800        4.82800       -3.45300
H         -0.94500        5.50800       -2.64900
H         -1.29600        3.94400       -3.45900
C         -0.69300        5.56400       -4.79000
H         -1.55900        6.22400       -4.86500
H         -0.70300        4.83700       -5.60400
C          0.63600        6.32900       -4.80700
H          1.00600        6.36400       -5.83300
C          0.46300        7.78500       -4.33500
O         -0.18300        8.57400       -5.01500
N          1.03700        8.15300       -3.18400
H          1.56300        7.45400       -2.68800
C          1.09600        9.53200       -2.68200
H          0.15400       10.02900       -2.92100
C          1.26300        9.51700       -1.14800
H          2.26700        9.16200       -0.91600
H          1.19000       10.54500       -0.78900
C          0.24800        8.65500       -0.37100
H          0.34600        7.61200       -0.67400
C          0.54500        8.73700        1.12700
H          0.43400        9.76500        1.47400
H         -0.14600        8.09700        1.67500
H          1.56300        8.40200        1.32100
C         -1.19700        9.10100       -0.60000
H         -1.87100        8.50000        0.00900
H         -1.31100       10.15200       -0.33300
H         -1.46800        8.96600       -1.64700
C          2.20600       10.37700       -3.34400
O          2.34300       11.55800       -3.05100
N          3.03800        9.80600       -4.20900
H          3.74600       10.37900       -4.63500
H          2.94300        8.82800       -4.44300
