66
0 1
H         13.76400       14.90600        3.52200
C         14.50000       14.93100        4.32300
H         14.31900       14.10500        5.01000
H         14.42900       15.87500        4.86200
C         15.88400       14.79100        3.73800
O         16.60000       13.85300        4.07000
N         16.26500       15.72900        2.87200
H         15.61800       16.47300        2.66600
C         17.57200       15.76400        2.20300
H         17.83300       14.73700        1.94600
C         17.43400       16.56100        0.88700
H         16.53700       16.23300        0.36000
H         17.30100       17.61400        1.14100
C         18.63700       16.42400       -0.07100
H         19.57300       16.54900        0.47000
C         18.65600       15.06400       -0.77100
H         18.75300       14.26500       -0.03900
H         17.73900       14.91800       -1.34200
H         19.51000       15.01100       -1.44500
C         18.56300       17.50300       -1.15200
H         19.41500       17.40800       -1.82400
H         17.63900       17.40500       -1.72100
H         18.59900       18.48800       -0.68500
C         18.68800       16.28600        3.13700
O         19.29300       17.32700        2.88800
N         18.95800       15.57600        4.23600
H         18.42600       14.72600        4.38800
C         20.05100       15.90000        5.17100
H         19.99100       16.96300        5.41000
C         19.85800       15.11100        6.47700
H         20.58800       15.46600        7.20500
H         18.87100       15.33900        6.88100
C         20.00500       13.60300        6.34800
C         18.86500       12.79000        6.19600
H         17.87900       13.23500        6.18500
C         19.00300       11.39700        6.04900
H         18.13300       10.77200        5.92000
C         20.28600       10.81300        6.05800
O         20.41700        9.47400        5.86300
H         21.27100        9.15800        6.16200
C         21.43000       11.62100        6.23200
H         22.41400       11.17900        6.23500
C         21.28500       13.01400        6.38000
H         22.16200       13.63700        6.50600
C         21.45600       15.65900        4.57700
O         22.46400       15.99800        5.19200
N         21.52700       15.05400        3.38900
H         20.64700       14.75300        2.98800
C         22.73100       14.57200        2.70500
H         23.33400       14.01900        3.42600
C         22.28600       13.60300        1.59100
H         21.91600       14.18600        0.74600
H         23.14800       13.02800        1.25000
C         21.18500       12.65600        2.01200
N         19.83500       13.00300        2.11900
C         19.22300       11.94600        2.66900
H         18.17200       11.91300        2.93000
N         20.10900       10.96200        2.90200
H         19.90500       10.10500        3.40000
C         21.35500       11.39500        2.50300
H         22.29600       10.87600        2.61300
C         23.63600       15.67600        2.13200
O         24.70700       15.38400        1.61600
N         23.23400       16.93900        2.18100
H         22.35600       17.16500        2.62100
H         23.84000       17.65100        1.81000
