65
0 1
H          1.30300       17.80400        0.85300
C          0.78400       16.88300        1.11200
H         -0.29200       17.04600        1.06500
H          1.05800       16.57000        2.11600
C          1.15900       15.79700        0.13200
O          0.28500       15.19600       -0.47900
N          2.46000       15.54800       -0.01800
H          3.10700       16.10600        0.51700
C          3.01500       14.53000       -0.92800
H          2.36900       14.46700       -1.80500
C          4.40300       15.03800       -1.37700
H          4.27800       16.03600       -1.80100
H          5.03600       15.12900       -0.49300
C          5.15400       14.17200       -2.41000
H          5.38200       13.19700       -1.98300
C          4.36200       13.98600       -3.70600
H          4.09000       14.95400       -4.12600
H          4.96400       13.43500       -4.42800
H          3.46000       13.40700       -3.50900
C          6.48000       14.84800       -2.76200
H          7.08000       14.97600       -1.86200
H          7.03500       14.22300       -3.46200
H          6.29900       15.82200       -3.21900
C          3.07300       13.11400       -0.31200
O          3.26400       12.12800       -1.01800
N          2.90500       13.00200        1.00800
H          2.67200       13.84200        1.51400
C          3.21400       11.81400        1.82100
H          4.26500       11.56600        1.67000
C          3.01100       12.18000        3.30100
H          1.94300       12.14900        3.52400
H          3.49300       11.42300        3.92100
C          3.54600       13.54900        3.68400
C          4.93100       13.74800        3.83800
H          5.61000       12.91400        3.72400
C          5.43200       15.03100        4.13700
H          6.49400       15.18100        4.25500
C          4.54100       16.11700        4.28000
O          5.01200       17.35900        4.56100
H          5.94000       17.34900        4.79800
C          3.15400       15.91700        4.12200
H          2.48300       16.75400        4.24800
C          2.65600       14.63400        3.82400
H          1.59000       14.47800        3.70700
C          2.40000       10.55200        1.48300
O          2.76000        9.45700        1.90200
N          1.30600       10.70100        0.73600
H          1.09900       11.63800        0.42500
C          0.41100        9.61600        0.32100
H          0.32300        8.91400        1.15200
C         -0.99700       10.17300        0.01700
H         -0.98800       10.66500       -0.95700
H         -1.67800        9.32400       -0.05600
C         -1.56000       11.14500        1.07700
H         -2.64200       11.19400        0.95900
H         -1.34000       10.77500        2.07800
C         -1.01300       12.56400        0.92000
O         -0.22300       13.09700        1.69100
O         -1.37300       13.17700       -0.22500
H         -0.85400       14.00300       -0.29000
C          0.94600        8.81500       -0.88500
O          0.36400        7.80600       -1.26300
N          2.02800        9.24400       -1.52800
H          2.36300        8.70500       -2.30900
H          2.49800       10.08800       -1.23100
