64
0 1
H          1.41500       10.67200       -5.22700
C          2.22400       11.24400       -4.77700
H          1.82500       12.16300       -4.34900
H          2.97200       11.48800       -5.52900
C          2.86300       10.43000       -3.67800
O          2.87600       10.85200       -2.52900
N          3.40600        9.26600       -4.03800
H          3.36400        9.01500       -5.01100
C          4.06100        8.31600       -3.12300
H          3.46800        8.25900       -2.20900
C          4.07900        6.91200       -3.76600
H          4.66700        6.95800       -4.68400
H          4.58500        6.22700       -3.08400
C          2.69600        6.31900       -4.09400
H          2.17800        6.96900       -4.80000
C          2.87100        4.94900       -4.75100
H          3.47300        5.04700       -5.65400
H          3.36700        4.26500       -4.06100
H          1.89700        4.54200       -5.02100
C          1.82100        6.14200       -2.85200
H          1.57000        7.11500       -2.42900
H          0.89300        5.63600       -3.11800
H          2.35200        5.55400       -2.10200
C          5.46300        8.79100       -2.67800
O          6.47500        8.14500       -2.95200
N          5.51900        9.94700       -2.01200
H          4.63000       10.41000       -1.85200
C          6.74400       10.67100       -1.63600
H          7.40700       10.64100       -2.50200
C          6.39400       12.15600       -1.39400
H          7.31300       12.69600       -1.16200
H          6.02500       12.55200       -2.34100
C          5.34200       12.47900       -0.30800
H          4.42400       11.93000       -0.51300
C          5.79500       12.15500        1.11700
H          5.82800       11.07800        1.26300
H          6.78100       12.58300        1.30400
H          5.08300       12.56300        1.83400
C          5.01900       13.97300       -0.36200
H          4.65000       14.23400       -1.35400
H          4.24200       14.20900        0.36500
H          5.91200       14.55900       -0.14100
C          7.56900       10.05000       -0.48800
O          8.62300       10.58000       -0.14100
N          7.12200        8.93800        0.10300
H          6.25800        8.54700       -0.25000
C          7.83700        8.18800        1.15200
H          8.26200        8.92700        1.83300
C          6.83300        7.35700        1.99400
H          7.33700        7.04600        2.91000
H          6.02400        8.02600        2.29200
C          6.19400        6.09900        1.36500
H          6.88500        5.26000        1.43900
H          5.30300        5.83200        1.93300
C          5.80400        6.30100       -0.09000
O          4.80000        6.91700       -0.40100
N          6.64700        5.92000       -1.02200
H          7.54600        5.55400       -0.73800
H          6.49500        6.29100       -1.95000
C          9.04100        7.39300        0.59000
O          9.09000        6.16700        0.61300
N         10.02300        8.07600        0.02000
H         10.80100        7.57400       -0.37200
H          9.94800        9.08400       -0.04700
