66
0 1
H         10.13600       12.55700        3.92400
C          9.92600       11.49200        4.01000
H          9.63800       11.25100        5.03100
H         10.81600       10.92400        3.74000
C          8.80400       11.12300        3.07000
O          8.98900       10.30400        2.17700
N          7.63500       11.73700        3.25800
H          7.57200       12.40800        4.00600
C          6.42900       11.49700        2.45300
H          6.37000       10.42000        2.28700
C          5.19400       11.90700        3.28600
H          5.25500       11.39900        4.25000
H          5.24200       12.98100        3.47300
C          3.81500       11.58700        2.66700
H          3.65300       12.19200        1.77900
C          3.66200       10.11200        2.28600
H          2.64400        9.92800        1.94000
H          4.34200        9.85800        1.47600
H          3.86500        9.47800        3.14900
C          2.71600       11.93200        3.67200
H          2.81500       11.31900        4.56800
H          2.78700       12.98500        3.94500
H          1.73900       11.75500        3.22300
C          6.52000       12.15300        1.05600
O          5.75100       13.04500        0.71100
N          7.47700       11.70300        0.24100
H          8.10600       11.00300        0.62500
C          7.80600       12.25800       -1.08300
H          8.04200       13.31500       -0.95200
C          9.07900       11.53800       -1.57500
H          9.82100       11.59700       -0.77600
H          8.86100       10.48000       -1.73300
C          9.73000       12.12700       -2.84100
H          9.38300       13.14700       -3.01000
H         10.80800       12.17100       -2.68600
C          9.48600       11.27700       -4.08500
O         10.20900       10.33700       -4.38100
N          8.44900       11.55200       -4.84100
H          7.77500       12.24500       -4.53100
H          8.26200       10.93100       -5.60800
C          6.64900       12.18600       -2.10600
O          6.67300       12.88900       -3.11400
N          5.63200       11.36100       -1.83800
H          5.69100       10.83100       -0.98600
C          4.43000       11.16800       -2.66400
H          4.55800       11.71800       -3.59800
C          4.30400        9.67800       -3.03000
H          4.17400        9.09300       -2.11800
H          3.41300        9.53400       -3.64300
C          5.50500        9.15500       -3.79700
C          5.53800        9.26300       -5.20100
H          4.68200        9.65500       -5.73300
C          6.69800        8.89700       -5.91100
H          6.74500        9.00200       -6.98400
C          7.83200        8.43800       -5.21100
O          9.00200        8.25800       -5.87100
H          9.71800        8.69600       -5.38600
C          7.78900        8.29500       -3.80800
H          8.66700        7.95200       -3.28200
C          6.62000        8.64100       -3.10400
H          6.59700        8.54900       -2.02800
C          3.15200       11.74000       -2.01600
O          2.04200       11.42500       -2.42500
N          3.26300       12.56800       -0.98300
H          4.17300       12.83900       -0.63500
H          2.42000       12.93800       -0.57800
