63
0 1
H          0.92300        4.82900        3.54800
C          0.86600        5.02900        2.47900
H          1.16900        6.05500        2.27600
H         -0.15600        4.87600        2.13500
C          1.78100        4.08200        1.74100
O          1.32700        3.30900        0.90400
N          3.07600        4.13000        2.05400
H          3.37100        4.78400        2.76100
C          4.10000        3.27700        1.43800
H          3.82100        3.15100        0.39100
C          5.45900        4.01000        1.47400
H          5.31900        5.02800        1.10600
H          5.78900        4.07300        2.51200
C          6.57600        3.34500        0.63900
H          6.72000        2.31300        0.95100
C          6.26900        3.35900       -0.86100
H          5.39200        2.75100       -1.07700
H          6.09500        4.38000       -1.20000
H          7.11300        2.94100       -1.41000
C          7.89000        4.09400        0.85800
H          8.15400        4.06900        1.91500
H          8.68700        3.61000        0.29200
H          7.79500        5.13000        0.53200
C          4.12300        1.86300        2.05600
O          5.09200        1.45400        2.68900
N          3.04700        1.10100        1.84900
H          2.27400        1.53700        1.35800
C          2.95100       -0.33100        2.18900
H          3.06600       -0.42300        3.27000
C          1.55400       -0.87300        1.81200
H          1.43700       -1.85000        2.28500
H          0.79200       -0.21600        2.23600
C          1.28000       -1.05200        0.30200
H          1.99300       -1.75200       -0.13300
H          0.28200       -1.47000        0.17500
C          1.35200        0.27000       -0.45200
O          2.36500        0.71200       -0.98200
O          0.23500        1.01600       -0.37400
H          0.47900        1.90900       -0.64100
C          4.05800       -1.19600        1.55000
O          4.35400       -2.27400        2.05300
N          4.66800       -0.72900        0.45300
H          4.29700        0.11600        0.04100
C          5.82300       -1.35300       -0.20300
H          5.59600       -2.40900       -0.35000
C          5.96700       -0.67400       -1.58300
H          5.01000       -0.75500       -2.10200
H          6.16600        0.38500       -1.42000
C          7.06500       -1.22400       -2.51400
H          8.04500       -1.07300       -2.06500
C          6.87400       -2.70900       -2.83200
H          7.62900       -3.03000       -3.55000
H          7.00200       -3.29800       -1.92400
H          5.88100       -2.88300       -3.24500
C          7.03400       -0.45200       -3.83500
H          7.83300       -0.80800       -4.48600
H          6.07500       -0.59300       -4.33200
H          7.18900        0.61000       -3.64300
C          7.12300       -1.28900        0.63400
O          8.09300       -1.97400        0.33300
N          7.18900       -0.48500        1.68900
H          6.38800        0.06500        1.96700
H          8.03500       -0.48400        2.23200
