64
0 1
H         11.15100        5.87200        2.21400
C         10.56300        4.96200        2.33100
H         10.13100        4.93100        3.32900
H         11.19900        4.09300        2.17300
C          9.45500        4.96300        1.30700
O          9.38100        5.86100        0.48000
N          8.58200        3.95600        1.36600
H          8.71100        3.26400        2.08600
C          7.49200        3.75100        0.39800
H          7.93900        3.66800       -0.59400
C          6.80400        2.41400        0.74400
H          7.55900        1.62600        0.73800
H          6.40600        2.48800        1.75800
C          5.65200        1.98900       -0.19000
H          4.85700        2.73200       -0.15900
C          6.11300        1.80100       -1.63700
H          6.43200        2.75700       -2.05200
H          6.93600        1.08800       -1.68400
H          5.28300        1.43500       -2.24100
C          5.07300        0.66000        0.29600
H          4.23400        0.37200       -0.33800
H          5.83300       -0.12000        0.26100
H          4.71100        0.76700        1.31900
C          6.49000        4.92300        0.33200
O          5.85100        5.13400       -0.69600
N          6.38700        5.72400        1.39600
H          6.99900        5.55100        2.18400
C          5.57800        6.94900        1.44700
H          4.55700        6.71600        1.14400
C          5.56400        7.45600        2.89600
H          4.90600        8.32300        2.96400
H          5.16000        6.67800        3.54500
C          6.93500        7.83800        3.39800
N          7.94300        6.94200        3.76400
C          9.00700        7.70000        4.07100
H          9.96300        7.31200        4.39600
N          8.72300        9.00400        3.90800
H          9.36700        9.76800        4.05400
C          7.42100        9.11000        3.47500
H          6.88600       10.01300        3.21100
C          6.07200        8.06100        0.50500
O          5.34000        9.01900        0.27600
N          7.28900        7.94900       -0.04200
H          7.86000        7.15300        0.22000
C          7.82100        8.84500       -1.07600
H          7.46800        9.85800       -0.87700
C          9.36200        8.84000       -1.01100
H          9.71200        7.84500       -1.29000
H          9.74100        9.54100       -1.75700
C          9.96600        9.20900        0.35900
H          9.60500        8.52200        1.12300
C         11.48900        9.08700        0.30200
H         11.75700        8.06400        0.03600
H         11.89100        9.77000       -0.44600
H         11.91700        9.32000        1.27600
C          9.61800       10.63800        0.78200
H          8.54300       10.72400        0.93600
H         10.12400       10.88300        1.71400
H          9.92700       11.34100        0.00800
C          7.32700        8.49500       -2.49700
O          7.62600        9.20700       -3.44800
N          6.58900        7.40700       -2.68600
H          6.27300        7.20200       -3.61800
H          6.34400        6.81300       -1.90600
