73
0 1
H         14.62700        6.41300       -2.44700
C         13.89100        5.64200       -2.66500
H         13.94600        4.86000       -1.90800
H         14.08100        5.21200       -3.64700
C         12.50700        6.24700       -2.64300
O         11.66500        5.83700       -1.85400
N         12.26600        7.22800       -3.51300
H         13.00100        7.49500       -4.14800
C         10.96000        7.87400       -3.65600
H         10.58800        8.11100       -2.65800
C         11.14200        9.19600       -4.43100
H         11.84400        9.82800       -3.88500
H         11.58300        8.96800       -5.40300
C          9.84000        9.98800       -4.66700
H          9.12500        9.37900       -5.21800
C          9.19300       10.43400       -3.35500
H          9.91500       10.98100       -2.74900
H          8.34900       11.08800       -3.57000
H          8.83200        9.57100       -2.79700
C         10.14100       11.23400       -5.49800
H         10.58100       10.94100       -6.45200
H          9.21700       11.77700       -5.69900
H         10.83400       11.88600       -4.96600
C          9.95200        6.92300       -4.32600
O          9.88800        6.83400       -5.55000
N          9.14100        6.23100       -3.52300
H          9.29700        6.29700       -2.52700
C          8.15400        5.24600       -3.99400
H          8.66800        4.51500       -4.62000
C          7.57300        4.50800       -2.78200
H          6.90100        3.72600       -3.14000
H          8.38800        4.01300       -2.25100
C          6.82900        5.36900       -1.80600
C          5.49600        5.59200       -1.82400
H          4.80700        5.15900       -2.54000
N          5.15900        6.47000       -0.81500
H          4.21800        6.81400       -0.66800
C          6.26700        6.88600       -0.11000
C          6.44000        7.77700        0.95900
H          5.58900        8.28100        1.38900
C          7.73300        7.99100        1.46700
H          7.88700        8.66800        2.29600
C          8.82600        7.30400        0.90800
H          9.81800        7.45400        1.31200
C          8.63900        6.40800       -0.16300
H          9.48700        5.86700       -0.55600
C          7.35500        6.18400       -0.71000
C          7.02800        5.84200       -4.86100
O          6.37100        5.10600       -5.59000
N          6.82100        7.16400       -4.82400
H          7.35000        7.70100       -4.15900
C          5.93200        7.88400       -5.74800
H          5.02400        7.29300       -5.87600
C          5.54000        9.23900       -5.13500
H          6.43900        9.84900       -5.03800
H          4.87400        9.75500       -5.82800
C          4.83100        9.16500       -3.79300
C          3.61900        8.45600       -3.67600
H          3.20000        7.95500       -4.53900
C          2.94700        8.40100       -2.44000
H          2.02000        7.85600       -2.34300
C          3.48000        9.06900       -1.31900
O          2.85200        8.97400       -0.12000
H          3.12700        9.66600        0.48400
C          4.68800        9.78800       -1.43400
H          5.10800       10.28700       -0.57400
C          5.36100        9.83300       -2.67000
H          6.28200       10.38800       -2.75500
C          6.51700        8.07900       -7.16500
O          5.85500        8.63000       -8.03600
N          7.75200        7.67300       -7.43700
H          8.09900        7.80100       -8.37300
H          8.31600        7.22200       -6.73000
