63
0 1
H          9.43900        0.98700        2.94000
C          9.39100        0.51900        3.92100
H         10.33400        0.66900        4.44400
H          9.19900       -0.54800        3.81900
C          8.28000        1.14800        4.72800
O          8.51300        1.62500        5.83200
N          7.06300        1.14000        4.18300
H          6.95200        0.71200        3.27900
C          5.85500        1.64900        4.85100
H          6.14400        2.53600        5.42000
C          4.83100        2.09400        3.78200
H          5.38300        2.45400        2.91200
H          4.23400        1.24000        3.45800
C          3.90500        3.24500        4.22800
H          4.52200        4.10200        4.50100
C          3.01300        3.65800        3.05500
H          3.63000        3.95100        2.20600
H          2.37000        2.82600        2.76500
H          2.39400        4.50700        3.34400
C          2.99500        2.91200        5.41100
H          3.59200        2.73100        6.30500
H          2.32800        3.74900        5.61400
H          2.40400        2.02400        5.18800
C          5.32100        0.62100        5.87400
O          4.22900        0.07100        5.73400
N          6.13300        0.31100        6.88500
H          7.03500        0.77100        6.92100
C          5.77000       -0.60500        7.96800
H          5.42600       -1.52700        7.50500
C          7.01800       -0.93900        8.79800
H          7.42200       -0.01600        9.21800
H          6.73200       -1.57900        9.63300
C          8.09600       -1.64900        8.00000
C          9.24600       -0.95200        7.58000
H          9.37300        0.09200        7.83500
C         10.22500       -1.60600        6.80800
H         11.10600       -1.07700        6.47800
C         10.05800       -2.96000        6.45500
O         11.00200       -3.58200        5.70200
H         10.81500       -4.51400        5.59100
C          8.90800       -3.66200        6.87900
H          8.77500       -4.69800        6.60900
C          7.93000       -3.00500        7.65000
H          7.04600       -3.54100        7.96700
C          4.63400       -0.03200        8.84400
O          4.56800        1.18400        9.02800
N          3.74500       -0.87200        9.41400
C          2.66200       -0.39700       10.26500
H          2.07300        0.37200        9.76200
H          3.08000        0.00200       11.19100
C          1.79400       -1.61600       10.57200
H          1.03900       -1.73800        9.79300
H          1.32900       -1.54400       11.55500
C          2.80200       -2.76100       10.50000
H          2.31400       -3.72000       10.31700
H          3.37200       -2.80200       11.43000
C          3.72800       -2.34100        9.35200
H          4.72300       -2.73800        9.54800
C          3.24300       -2.93400        8.01400
O          3.32700       -4.13900        7.82000
N          2.75300       -2.14100        7.07100
H          2.76000       -1.13800        7.18100
H          2.47600       -2.55600        6.19600
