68
0 1
H          4.02700        3.16800       -1.37000
C          3.83700        3.84700       -0.54100
H          4.76700        4.04000       -0.00700
H          3.11600        3.40600        0.14300
C          3.30200        5.15200       -1.07800
O          3.97200        6.17300       -0.99900
N          2.07900        5.12700       -1.61200
H          1.60000        4.24100       -1.63400
C          1.45000        6.26200       -2.31200
H          2.08500        6.51600       -3.16300
C          0.08400        5.77900       -2.84500
H          0.24900        4.89700       -3.46600
H         -0.52800        5.48000       -1.99300
C         -0.71900        6.80600       -3.67100
H         -0.94900        7.67600       -3.05700
C          0.02800        7.25700       -4.92800
H         -0.60600        7.92500       -5.51100
H          0.92600        7.80900       -4.64900
H          0.30200        6.39600       -5.53700
C         -2.04100        6.17600       -4.10900
H         -1.85600        5.31100       -4.74700
H         -2.61100        5.86600       -3.23300
H         -2.63000        6.90800       -4.66200
C          1.32400        7.54600       -1.46200
O          1.27500        8.64300       -2.00900
N          1.33700        7.42200       -0.13200
H          1.45700        6.49600        0.24600
C          1.38400        8.54100        0.81800
H          0.54000        9.20400        0.62100
C          1.23200        7.97600        2.24100
H          1.41500        8.77000        2.96700
H          0.19600        7.65900        2.37200
C          2.14500        6.79900        2.54900
C          1.62700        5.48800        2.54200
H          0.57200        5.32100        2.37000
C          2.48100        4.39200        2.77100
H          2.09600        3.38300        2.77900
C          3.85500        4.60400        3.00200
O          4.67500        3.54000        3.20000
H          5.56200        3.81100        3.44100
C          4.37400        5.91700        3.01700
H          5.42500        6.08500        3.19200
C          3.51500        7.01100        2.79700
H          3.91400        8.01800        2.80900
C          2.65300        9.41100        0.70700
O          2.67400       10.51300        1.24700
N          3.70000        8.94900        0.01100
H          3.65000        8.00800       -0.36600
C          4.88900        9.74300       -0.32400
H          5.21300       10.27300        0.57300
C          5.99900        8.75100       -0.73100
H          6.09500        8.03100        0.08300
H          5.68100        8.19400       -1.61300
C          7.38200        9.38500       -0.99600
H          7.44900       10.35500       -0.50300
C          8.49300        8.49400       -0.43200
H          8.37100        8.39700        0.64700
H          8.45100        7.50700       -0.89200
H          9.46400        8.94700       -0.63100
C          7.66000        9.54700       -2.49300
H          8.62900       10.02300       -2.63700
H          7.65700        8.57500       -2.98700
H          6.89900       10.18000       -2.94700
C          4.61000       10.82100       -1.39700
O          5.38100       11.76000       -1.55300
N          3.51700       10.73000       -2.14600
H          3.33900       11.45600       -2.81800
H          2.85900        9.97700       -2.00000
