60
0 1
H          8.43400        9.71200        4.90000
C          8.69100        8.65600        4.94500
H          7.88900        8.11100        5.44100
H          9.62700        8.52100        5.48300
C          8.85200        8.11200        3.54600
O          8.36800        7.02700        3.24500
N          9.54200        8.86300        2.68700
H          9.94200        9.72300        3.02600
C          9.73100        8.51800        1.27100
H          8.74500        8.41600        0.81400
C         10.47800        9.68300        0.59100
H          9.89100       10.59400        0.72100
H         11.43100        9.82300        1.10300
C         10.76500        9.49500       -0.91200
H         11.38600        8.61200       -1.06100
C          9.48500        9.35600       -1.73800
H          9.73700        9.29400       -2.79700
H          8.96400        8.43900       -1.46500
H          8.83200       10.21200       -1.57200
C         11.53600       10.70800       -1.43500
H         10.93900       11.61300       -1.32200
H         12.46900       10.81800       -0.88200
H         11.77300       10.56400       -2.48900
C         10.45500        7.17300        1.07600
O         10.17100        6.45000        0.12500
N         11.34400        6.80400        2.00100
H         11.50900        7.43600        2.77600
C         12.05300        5.52200        2.00100
H         12.40500        5.35700        0.98200
C         13.31000        5.61000        2.89200
H         13.91800        4.73300        2.66500
H         13.89800        6.48200        2.60000
C         13.10200        5.62900        4.41900
H         12.37200        4.87600        4.71200
H         14.04800        5.34700        4.88300
C         12.70200        6.98400        5.01000
O         12.27700        7.95400        4.38800
O         12.87700        7.09000        6.34100
H         12.57800        7.96800        6.57300
C         11.16200        4.30400        2.32900
O         11.64300        3.17700        2.25400
N          9.87900        4.50100        2.66200
H          9.54900        5.45400        2.77000
C          8.86900        3.43400        2.72100
H          9.37800        2.47700        2.84500
C          7.95700        3.62700        3.94600
H          7.39100        4.55600        3.85200
H          7.23900        2.80500        3.96100
C          8.71700        3.60200        5.28400
H          8.09300        3.09800        6.02300
H          9.64100        3.03200        5.18700
C          9.03300        4.99800        5.81100
O         10.03600        5.64800        5.55200
O          8.11200        5.51600        6.64700
H          8.45200        6.37500        6.89100
C          8.04300        3.30300        1.42300
O          7.16000        2.45900        1.33300
N          8.28800        4.11400        0.39900
H          7.73700        4.00500       -0.43600
H          9.01300        4.81700        0.45600
