61
0 1
H          2.66300       10.20500        5.94100
C          3.37200        9.45200        6.28000
H          2.83100        8.58700        6.65800
H          4.00100        9.87000        7.06400
C          4.23700        9.02900        5.11600
O          4.06400        9.52800        4.00800
N          5.16700        8.10800        5.36800
H          5.21200        7.71800        6.29500
C          6.01800        7.51200        4.33500
H          6.21300        8.27800        3.58300
C          7.36900        7.10500        4.95400
H          7.83800        7.99000        5.38600
H          7.17600        6.39700        5.76200
C          8.35700        6.44900        3.96600
H          7.90800        5.55300        3.53900
C          8.76200        7.38900        2.82800
H          9.49500        6.89700        2.18600
H          7.90300        7.64600        2.21300
H          9.20200        8.30100        3.23200
C          9.62600        6.03400        4.71100
H         10.31300        5.54300        4.02200
H         10.11400        6.90900        5.14100
H          9.37200        5.33400        5.50700
C          5.31700        6.33100        3.64300
O          4.83500        5.40900        4.29300
N          5.31800        6.35500        2.31200
H          5.66800        7.20000        1.88300
C          4.75600        5.32800        1.42100
H          4.84600        4.35900        1.91600
C          3.25200        5.59400        1.17400
H          2.84000        4.72600        0.65800
H          2.74800        5.66100        2.14000
C          2.89400        6.84700        0.34500
H          3.30200        6.75900       -0.66200
H          1.80900        6.91500        0.26100
C          3.41800        8.12700        0.98400
O          4.53400        8.58900        0.76500
O          2.61300        8.64400        1.93200
H          3.14000        9.25300        2.47700
C          5.53800        5.23100        0.09800
O          5.65900        4.14800       -0.46700
N          6.11000        6.34300       -0.38400
H          5.90500        7.22600        0.06700
C          7.03200        6.37400       -1.52300
H          6.62700        5.73900       -2.31200
C          7.09700        7.81300       -2.06600
H          6.08400        8.15300       -2.28500
H          7.52200        8.46800       -1.30500
C          7.92600        7.91600       -3.35300
H          8.95900        7.63200       -3.14800
H          7.52000        7.21000       -4.07900
S          7.92900        9.55900       -4.12300
C          8.91800       10.48600       -2.91800
H          9.07300       11.50100       -3.28300
H          8.39600       10.52700       -1.96200
H          9.88500       10.00000       -2.78400
C          8.41100        5.80500       -1.13100
O          9.35400        6.53300       -0.84500
N          8.53600        4.48800       -1.06800
H          7.72200        3.90500       -1.21200
H          9.42400        4.10000       -0.79700
