62
0 1
H          5.62900       -3.85400        2.55800
C          5.13000       -3.08900        3.15200
H          5.82100       -2.27300        3.35400
H          4.78400       -3.51900        4.09000
C          3.94500       -2.56000        2.38100
O          3.65300       -3.03300        1.28900
N          3.28200       -1.54500        2.92900
H          3.68200       -1.12500        3.76000
C          2.18800       -0.81000        2.28300
H          1.57100       -1.51400        1.72400
C          1.30800       -0.13600        3.35700
H          1.92000        0.58400        3.90300
H          0.51400        0.41700        2.85300
C          0.66400       -1.09600        4.37600
H          1.44300       -1.63800        4.91300
C         -0.14400       -0.29100        5.39500
H         -0.57100       -0.96300        6.14000
H          0.50900        0.42000        5.90100
H         -0.94700        0.25000        4.89500
C         -0.27700       -2.10700        3.71600
H         -1.03700       -1.58800        3.13200
H          0.28900       -2.77300        3.06600
H         -0.76200       -2.71300        4.48200
C          2.74800        0.18900        1.25300
O          2.61500        1.40400        1.40400
N          3.42200       -0.34200        0.22800
H          3.46600       -1.35700        0.20600
C          4.13300        0.39100       -0.83100
H          4.57100       -0.37500       -1.47200
C          3.16400        1.19000       -1.73100
H          2.70300        1.99600       -1.16300
H          3.75000        1.65200       -2.52700
C          2.07700        0.34500       -2.42000
H          1.66000        0.94300       -3.23100
H          2.55600       -0.52200       -2.87400
S          0.67600       -0.24400       -1.41600
C         -0.09200        1.32400       -0.92900
H          0.59000        1.89300       -0.29700
H         -0.33700        1.90500       -1.81800
H         -1.00500        1.12000       -0.36900
C          5.34800        1.21600       -0.35100
O          5.81300        2.11000       -1.05700
N          5.91500        0.90900        0.82300
H          5.49800        0.17500        1.37500
C          7.24100        1.41100        1.21400
H          7.28300        2.48100        1.00700
C          7.51300        1.20100        2.71800
H          7.34600        0.15400        2.97800
H          8.56500        1.42300        2.90500
C          6.68200        2.10800        3.64100
H          7.04500        2.00100        4.66300
H          6.81800        3.14800        3.34300
C          5.20300        1.74900        3.62800
O          4.81600        0.62500        3.90600
N          4.33900        2.66100        3.24500
H          3.43100        2.30900        2.96300
H          4.64600        3.56500        2.94600
C          8.33700        0.72900        0.37800
O          8.36500       -0.48900        0.24300
N          9.28000        1.49000       -0.16100
H          9.99200        1.03900       -0.71000
H          9.23600        2.49100       -0.07500
