64
0 1
H          3.29900        8.54600        3.87700
C          3.81900        7.72100        4.36100
H          3.29300        7.44000        5.27100
H          4.83800        8.02300        4.60100
C          3.85600        6.54100        3.42100
O          3.30200        6.61200        2.33100
N          4.53100        5.47200        3.84900
H          5.01600        5.60000        4.72400
C          4.86800        4.23900        3.11000
H          5.45200        3.62800        3.79800
C          3.58600        3.44200        2.78600
H          3.05200        3.24500        3.71600
H          2.94300        4.05600        2.15600
C          3.82100        2.10600        2.05200
H          4.33200        2.29100        1.10800
C          4.64500        1.11900        2.88200
H          5.65500        1.50400        3.02300
H          4.17500        0.95500        3.85100
H          4.72000        0.17000        2.35200
C          2.47300        1.45300        1.74300
H          1.93800        1.23500        2.66700
H          1.87300        2.12400        1.12800
H          2.63200        0.52600        1.19100
C          5.78800        4.45400        1.89200
O          6.78900        3.75600        1.75200
N          5.50800        5.45900        1.06100
H          4.65700        5.98100        1.24500
C          6.34800        5.88900       -0.06400
H          6.57200        5.01700       -0.68000
C          5.56700        6.91100       -0.91500
H          5.39300        7.80000       -0.30700
H          6.19200        7.20400       -1.75900
C          4.21000        6.42100       -1.46000
H          3.55100        6.16500       -0.63100
C          3.54800        7.54000       -2.26400
H          4.17200        7.81100       -3.11600
H          2.57300        7.20900       -2.62100
H          3.40700        8.41300       -1.62800
C          4.35100        5.19900       -2.37100
H          4.72000        4.34800       -1.79900
H          3.37900        4.93500       -2.78600
H          5.04300        5.41600       -3.18500
C          7.71300        6.46400        0.36900
O          8.56400        6.72100       -0.47700
N          7.94400        6.64900        1.67400
H          7.21300        6.39900        2.32300
C          9.25000        7.00400        2.24300
H          9.71100        7.76400        1.61200
C          9.03500        7.59600        3.64600
H          9.96700        8.05700        3.97500
H          8.27800        8.38000        3.59700
C          8.61800        6.57500        4.67700
N          7.32300        6.08600        4.87800
C          7.43700        5.14000        5.82400
H          6.61400        4.55400        6.21100
N          8.71500        5.01000        6.21500
H          9.05900        4.34800        6.89700
C          9.47600        5.90400        5.49800
H         10.55100        6.02900        5.52900
C         10.23800        5.82200        2.30200
O         11.39000        6.00200        2.68100
N          9.82400        4.60200        1.97800
H          8.86300        4.44600        1.70800
H         10.48500        3.84600        2.01600
