71
0 1
H          2.60200        2.96300       -7.88000
C          3.09300        3.84000       -7.46100
H          3.29700        3.67600       -6.40400
H          2.45200        4.71000       -7.58300
C          4.39600        4.07100       -8.18900
O          4.75900        3.30100       -9.07200
N          5.10200        5.13500       -7.81200
H          4.77900        5.65300       -7.00800
C          6.35300        5.58700       -8.43100
H          6.77300        4.77200       -9.02100
C          6.07300        6.78500       -9.36400
H          5.60600        7.57200       -8.76800
H          7.02200        7.17600       -9.73200
C          5.17200        6.49000      -10.58000
H          4.22700        6.06200      -10.24800
C          4.86900        7.79600      -11.31500
H          5.79100        8.25000      -11.67700
H          4.21100        7.59600      -12.16200
H          4.36500        8.49000      -10.64200
C          5.83800        5.53600      -11.57400
H          5.98700        4.56100      -11.11300
H          5.18900        5.40000      -12.43900
H          6.79600        5.93700      -11.90400
C          7.40000        5.95100       -7.36800
O          7.06100        6.20200       -6.21300
N          8.67100        6.00400       -7.78700
H          8.82100        5.80700       -8.76300
C          9.88600        6.24200       -6.98500
H         10.71900        6.17400       -7.68600
C          9.89300        7.68800       -6.44200
H          9.79300        8.37800       -7.28100
H          9.02600        7.82300       -5.79500
C         11.14600        8.07100       -5.62900
H         11.24600        7.40200       -4.77400
C         12.42800        8.00900       -6.46200
H         12.63000        6.98100       -6.76300
H         12.33400        8.63800       -7.34700
H         13.27100        8.35500       -5.86400
C         10.99400        9.49700       -5.10000
H         10.90900       10.20000       -5.92900
H         10.10200        9.56500       -4.47700
H         11.86100        9.76000       -4.49400
C         10.18700        5.17700       -5.91200
O         11.29600        4.65300       -5.90600
N          9.22200        4.84500       -5.04800
H          8.34000        5.33100       -5.17200
C          9.24000        3.79400       -4.00900
H          8.29100        3.86900       -3.47600
C          9.24000        2.41200       -4.67900
H         10.13800        2.30000       -5.28800
H          9.28500        1.65200       -3.89800
C          8.03200        2.12300       -5.52100
C          7.94500        2.26400       -6.86300
H          8.75400        2.59500       -7.50100
N          6.67000        1.93000       -7.28200
H          6.33200        2.03500       -8.23500
C          5.88000        1.52800       -6.22700
C          4.55400        1.08000       -6.14400
H          3.96100        0.97300       -7.04000
C          4.01400        0.77100       -4.88400
H          2.99400        0.42200       -4.80000
C          4.80700        0.91400       -3.73000
H          4.39000        0.67300       -2.76100
C          6.14200        1.35500       -3.82800
H          6.74500        1.44800       -2.93600
C          6.71400        1.67000       -5.08000
C         10.30800        3.89500       -2.90000
O         10.08100        3.41500       -1.79700
N         11.45000        4.53200       -3.11400
H         11.66500        4.85500       -4.04600
H         12.12000        4.58000       -2.36600
