62
0 1
H          6.73500       12.31900       -0.89500
C          7.54600       11.63700       -0.64400
H          7.53900       11.43800        0.42600
H          8.49700       12.08100       -0.93200
C          7.35200       10.34100       -1.39500
O          6.38900       10.20500       -2.14200
N          8.26400        9.39300       -1.18700
H          9.00400        9.58000       -0.53000
C          8.20500        8.04800       -1.76500
H          7.62700        8.09300       -2.68700
C          9.64400        7.61000       -2.12100
H         10.13800        8.44600       -2.62000
H         10.19300        7.42600       -1.19600
C          9.82000        6.37900       -3.03700
H         10.89300        6.22800       -3.15400
C          9.24100        5.07800       -2.47900
H          9.61000        4.23800       -3.06900
H          9.55800        4.94600       -1.44400
H          8.15500        5.08500       -2.53400
C          9.23800        6.60900       -4.43200
H          9.49700        5.77000       -5.07800
H          8.15400        6.69600       -4.38800
H          9.65400        7.52100       -4.86000
C          7.50500        7.08400       -0.79000
O          8.04900        6.76700        0.26600
N          6.31200        6.60500       -1.15000
H          5.91100        6.98100       -2.00200
C          5.58300        5.54000       -0.43200
H          6.33100        4.84100       -0.05400
C          4.84600        6.11900        0.79800
H          4.68700        5.30100        1.50100
H          5.48500        6.84500        1.30000
C          3.47100        6.75300        0.52600
H          2.79500        5.97800        0.16500
H          3.07000        7.10200        1.47800
S          3.40800        8.13600       -0.64600
C          4.35000        9.38500        0.26800
H          3.88000        9.56800        1.23400
H          5.37300        9.03900        0.41900
H          4.36900       10.31300       -0.30500
C          4.63600        4.70900       -1.32400
O          3.90800        3.85400       -0.82600
N          4.62400        4.95600       -2.63700
H          5.29500        5.62700       -2.98900
C          3.63400        4.47600       -3.61300
H          2.65400        4.53100       -3.13700
C          3.61000        5.42500       -4.83600
H          4.55100        5.34400       -5.38300
H          2.81700        5.08100       -5.50200
C          3.32000        6.91100       -4.52400
H          2.95400        7.38000       -5.43800
H          2.52500        6.97700       -3.78000
C          4.52300        7.72800       -4.04700
O          5.62700        7.23600       -3.86700
N          4.35500        9.00000       -3.77400
H          5.14100        9.48200       -3.34200
H          3.45200        9.42800       -3.83800
C          3.82000        2.99500       -4.02600
O          3.63000        2.62300       -5.17800
N          4.22100        2.11900       -3.11500
H          4.34600        1.16000       -3.39100
H          4.32000        2.41700       -2.15400
