62
0 1
H         13.65600       14.96100        3.97800
C         14.48900       14.98100        3.27800
H         15.19500       14.18900        3.52000
H         14.98900       15.94700        3.33100
C         13.96700       14.77300        1.87700
O         14.22000       15.59300        1.00100
N         13.24100       13.67400        1.67700
H         13.09900       13.06700        2.46900
C         12.62300       13.28900        0.39400
H         12.54000       14.18700       -0.21500
C         13.53900       12.27300       -0.33300
H         14.47300       12.16300        0.22000
H         13.06100       11.29200       -0.32600
C         13.91300       12.61800       -1.78900
H         14.51900       11.79500       -2.16900
C         12.70000       12.75900       -2.70900
H         13.03300       12.89700       -3.73800
H         12.09400       11.85400       -2.65400
H         12.09000       13.61200       -2.41400
C         14.75500       13.89100       -1.89300
H         15.61700       13.81700       -1.23100
H         15.10700       14.01400       -2.91600
H         14.16900       14.76500       -1.61200
C         11.17700       12.77300        0.55600
O         10.55600       12.33000       -0.40800
N         10.61200       12.84500        1.76400
H         11.12100       13.33100        2.49400
C          9.22300       12.47300        2.07600
H          9.03500       11.45100        1.74500
C          9.04000       12.55200        3.60000
H          7.99700       12.35600        3.85200
H          9.65000       11.78000        4.07000
C          9.45100       13.89000        4.16600
N         10.77200       14.29900        4.37200
C         10.70200       15.59400        4.71500
H         11.55900       16.22100        4.92100
N          9.42300       16.00800        4.73700
H          9.12000       16.95200        4.92800
C          8.61800       14.94800        4.38500
H          7.54600       14.95600        4.24000
C          8.19200       13.36600        1.36600
O          7.05500       12.95100        1.17100
N          8.59000       14.57200        0.95500
H          9.52100       14.86900        1.22700
C          7.81600       15.48100        0.10500
H          6.78200       15.45100        0.45200
C          8.32600       16.92600        0.30300
H          7.56700       17.59300       -0.10700
H          8.39200       17.14400        1.37100
C          9.66500       17.29300       -0.37600
H          9.63800       17.00400       -1.42700
H          9.76600       18.37800       -0.34900
C         10.92300       16.71000        0.26800
O         10.90800       16.09000        1.31800
N         12.07100       16.88400       -0.34500
H         12.13300       17.39000       -1.20700
H         12.89500       16.50100        0.11700
C          7.78100       15.07500       -1.38500
O          7.18900       15.77300       -2.20000
N          8.42900       13.98900       -1.79300
H          8.38200       13.74300       -2.76700
H          8.93500       13.41100       -1.13600
