62
0 1
H         10.79400        8.08800       -0.45200
C          9.93900        7.82400       -1.07100
H          9.66600        8.67300       -1.69700
H          9.09500        7.54900       -0.44100
C         10.30700        6.65900       -1.95800
O         10.30200        6.78600       -3.17700
N         10.61200        5.51400       -1.34600
H         10.55700        5.49500       -0.34100
C         11.16700        4.32500       -2.01700
H         12.10600        4.63600       -2.48000
C         11.51600        3.25300       -0.96200
H         12.23600        2.57800       -1.42800
H         12.02400        3.72800       -0.12100
C         10.35300        2.38400       -0.43300
H          9.86700        1.87600       -1.26600
C         10.91200        1.31700        0.50900
H         10.10600        0.67000        0.85500
H         11.64100        0.70400       -0.02100
H         11.39200        1.78400        1.36900
C          9.29900        3.18000        0.34100
H          8.77400        3.86100       -0.32700
H          8.56100        2.49500        0.76100
H          9.76700        3.73800        1.15200
C         10.31400        3.74100       -3.16100
O         10.83600        2.99700       -3.98600
N          9.03100        4.10500       -3.25800
H          8.67300        4.76100       -2.57900
C          8.16300        3.76000       -4.39100
H          8.22300        2.68100       -4.53900
C          6.69700        4.09800       -4.05900
H          6.07700        3.75100       -4.88600
H          6.39000        3.54900       -3.16700
C          6.41500        5.59300       -3.84900
H          6.92500        6.16900       -4.62200
H          5.34400        5.75200       -3.97500
S          6.87500        6.24300       -2.21800
C          6.56600        8.00400       -2.51000
H          5.52400        8.15200       -2.79300
H          6.77500        8.56700       -1.60000
H          7.21500        8.36000       -3.31100
C          8.60100        4.39700       -5.72500
O          8.06800        4.02700       -6.76500
N          9.57900        5.31500       -5.72300
H          9.93000        5.64400       -4.83100
C         10.24200        5.79500       -6.94600
H          9.46700        6.07400       -7.66000
C         11.06300        7.05900       -6.62800
H         11.33500        7.53600       -7.57100
H         10.43600        7.75600       -6.07200
C         12.35700        6.79100       -5.84200
H         12.11700        6.30200       -4.89900
H         12.97900        6.11000       -6.42200
S         13.36200        8.26500       -5.49900
C         12.35600        9.09500       -4.24100
H         12.83100       10.03600       -3.96300
H         11.36000        9.29900       -4.63400
H         12.27700        8.45900       -3.36100
C         11.11500        4.72700       -7.64100
O         11.56300        4.93400       -8.76200
N         11.40000        3.59300       -7.01000
H         11.96200        2.91100       -7.48900
H         11.05000        3.42300       -6.07700
