66
0 1
H          6.73400       10.18800        3.40700
C          6.68000       11.10800        2.82700
H          7.23500       11.89800        3.32800
H          5.63800       11.40900        2.71900
C          7.26700       10.87200        1.45600
O          6.56700       11.00400        0.46000
N          8.55000       10.51200        1.41700
H          9.03600       10.44000        2.29700
C          9.33400       10.25400        0.19400
H          8.69400       10.40900       -0.67400
C         10.49700       11.26500        0.09700
H         11.16800       11.09500        0.94000
H         11.05900       11.06100       -0.81700
C         10.08600       12.75000        0.08200
H          9.52800       12.98700        0.98800
C         11.33900       13.62700        0.05600
H         11.91400       13.43000       -0.84900
H         11.05300       14.67900        0.07800
H         11.95600       13.41400        0.92800
C          9.23000       13.11100       -1.13400
H          9.02100       14.18000       -1.13600
H          9.75300       12.84500       -2.05400
H          8.28000       12.58000       -1.09600
C          9.80800        8.78800        0.07800
O         10.76800        8.49000       -0.62500
N          9.15500        7.87200        0.79700
H          8.33800        8.17000        1.31000
C          9.45700        6.43800        0.82900
H          9.84700        6.14300       -0.14500
C         10.52900        6.16400        1.89800
H         11.41900        6.75600        1.67600
H         10.14000        6.50100        2.86000
C         10.95000        4.69500        2.05400
H         11.45300        4.61600        3.01900
H         10.07500        4.04800        2.10200
S         12.11900        4.05700        0.81700
C         11.02400        3.42400       -0.48100
H         10.49900        4.24500       -0.96500
H         11.62400        2.90400       -1.22900
H         10.31100        2.72000       -0.05100
C          8.16300        5.66500        1.10200
O          7.36200        6.08500        1.93800
N          7.94900        4.55200        0.39700
H          8.67400        4.22300       -0.22000
C          6.65200        3.87000        0.31100
H          6.04500        4.15700        1.17000
C          5.91600        4.31800       -0.96800
H          6.32600        3.76200       -1.81300
H          4.86400        4.04500       -0.88200
C          6.01200        5.80400       -1.28000
C          6.79900        6.24500       -2.36300
H          7.29900        5.53000       -3.00100
C          6.95200        7.62300       -2.61100
H          7.56000        7.97300       -3.43200
C          6.32100        8.56400       -1.77400
O          6.50300        9.89100       -1.99400
H          6.36600       10.40100       -1.17800
C          5.53100        8.12400       -0.69100
H          5.05300        8.84800       -0.04900
C          5.37300        6.74600       -0.44900
H          4.78800        6.41300        0.39700
C          6.81500        2.34400        0.33900
O          7.84500        1.81100       -0.05900
N          5.79800        1.61400        0.77800
H          5.90500        0.61200        0.78700
H          4.95200        2.05600        1.09600
