62
0 1
H         11.94100       11.47300       -7.66800
C         12.74500       12.16800       -7.43700
H         12.48000       12.75600       -6.56000
H         12.91400       12.82900       -8.28400
C         14.01000       11.39600       -7.15200
O         15.02000       11.61900       -7.81000
N         13.93700       10.48600       -6.17900
H         13.07400       10.48700       -5.65300
C         15.00200        9.59400       -5.67100
H         14.55500        9.00100       -4.87300
C         15.47000        8.60100       -6.75700
H         15.99700        9.15800       -7.53300
H         16.19000        7.91800       -6.30300
C         14.36000        7.76800       -7.42800
H         13.64400        8.43100       -7.91400
C         14.97500        6.86700       -8.49900
H         14.18900        6.30100       -9.00000
H         15.49000        7.47800       -9.24000
H         15.68500        6.17400       -8.04600
C         13.61300        6.88000       -6.43100
H         14.31600        6.23300       -5.90500
H         13.07700        7.49500       -5.70900
H         12.88600        6.26400       -6.96000
C         16.18600       10.31100       -5.00000
O         16.57900        9.93400       -3.90200
N         16.71000       11.37600       -5.60800
H         16.35300       11.59700       -6.53100
C         17.58000       12.36200       -4.94600
H         18.28400       11.84600       -4.29400
C         18.37800       13.14100       -6.00500
H         17.68000       13.74000       -6.59100
H         19.06400       13.82400       -5.50000
C         19.19000       12.27100       -6.97800
H         18.52900       11.57600       -7.49500
H         19.60000       12.94200       -7.73400
S         20.59300       11.35200       -6.27600
C         19.80800        9.80100       -5.75400
H         20.57900        9.09700       -5.44200
H         19.13800        9.97700       -4.91400
H         19.24700        9.37300       -6.58500
C         16.78400       13.33400       -4.05200
O         17.36600       14.14300       -3.33600
N         15.45000       13.27500       -4.11200
H         15.04500       12.56800       -4.70800
C         14.49600       14.05700       -3.32100
H         14.85300       14.11500       -2.29200
C         14.40600       15.48600       -3.88700
H         13.72900       16.07400       -3.26800
H         15.38800       15.95800       -3.82500
C         13.92700       15.56000       -5.31500
N         12.59100       15.55500       -5.71700
C         12.61200       15.62800       -7.05600
H         11.72800       15.64600       -7.68000
N         13.87900       15.66200       -7.50700
H         14.15500       15.70500       -8.47700
C         14.72300       15.62100       -6.42000
H         15.80400       15.63300       -6.42500
C         13.12500       13.35500       -3.31100
O         12.91800       12.34500       -3.98200
N         12.17300       13.85500       -2.53500
H         12.33700       14.69500       -2.00800
H         11.27300       13.40400       -2.54000
