62
0 1
H          2.32800        8.44200        0.84800
C          2.65400        9.46300        0.65300
H          2.92900        9.94400        1.59000
H          1.84800       10.01600        0.17400
C          3.85200        9.43000       -0.26500
O          4.29900        8.35700       -0.65500
N          4.38200       10.60700       -0.60000
H          3.95600       11.43700       -0.22000
C          5.53000       10.79000       -1.50000
H          5.40100       10.08800       -2.32500
C          5.47900       12.21900       -2.08500
H          4.45800       12.43800       -2.40100
H          5.73700       12.92000       -1.28900
C          6.41600       12.46500       -3.28800
H          7.43000       12.14800       -3.05600
C          5.95000       11.72300       -4.54300
H          6.61000       11.96200       -5.37700
H          5.98900       10.64700       -4.38200
H          4.93100       12.01400       -4.79900
C          6.44700       13.95900       -3.61400
H          7.11800       14.13800       -4.45400
H          5.44800       14.31100       -3.86900
H          6.81700       14.51300       -2.75100
C          6.87500       10.43000       -0.82700
O          7.79000       11.24500       -0.73100
N          7.00200        9.19200       -0.34700
H          6.19700        8.58100       -0.45100
C          8.22800        8.63400        0.24900
H          8.58500        9.34500        0.99600
C          7.88900        7.32000        0.98800
H          8.78500        6.92200        1.46700
H          7.20600        7.58700        1.79500
C          7.19500        6.20600        0.16700
H          6.63700        5.59500        0.87600
H          6.46600        6.64200       -0.51300
C          8.07300        5.23300       -0.62700
O          7.56900        4.31000       -1.24400
N          9.38200        5.34900       -0.66800
H          9.87000        4.64900       -1.19600
H          9.86500        6.14100       -0.25800
C          9.38800        8.45800       -0.75100
O         10.45200        7.96800       -0.37800
N          9.17400        8.79800       -2.02200
H          8.24500        9.12500       -2.25200
C         10.05800        8.53600       -3.16200
H         10.57600        7.59200       -2.99000
C          9.17500        8.38200       -4.41600
H          8.86900        9.37100       -4.76000
H          9.75200        7.90900       -5.21100
C          7.92500        7.57400       -4.15100
N          6.73300        8.09600       -3.63800
C          5.97400        7.03800       -3.31700
H          4.99800        7.10000       -2.85000
N          6.63500        5.89600       -3.57100
H          6.34900        4.97300       -3.26000
C          7.86800        6.21400       -4.09300
H          8.67700        5.53000       -4.30900
C         11.14600        9.59900       -3.37400
O         12.01700        9.43000       -4.21700
N         11.12200       10.70500       -2.63900
H         11.84300       11.39100       -2.78400
H         10.39600       10.83300       -1.95200
