73
0 1
H         11.40200        6.59900        0.87200
C         11.33500        6.68900        1.95300
H         11.78200        7.62700        2.27600
H         11.85900        5.85600        2.42100
C          9.88200        6.64300        2.36000
O          9.38300        5.58100        2.71300
N          9.19300        7.78300        2.30800
H          9.66100        8.60600        1.95400
C          7.78800        7.91100        2.72100
H          7.66900        7.34100        3.64200
C          7.49500        9.39000        3.04800
H          8.23400        9.73800        3.77100
H          7.61800        9.97900        2.13900
C          6.08700        9.66600        3.61600
H          5.32600        9.35300        2.90500
C          5.84400        8.94800        4.94500
H          4.87500        9.24200        5.35000
H          5.82800        7.86900        4.79200
H          6.62400        9.20400        5.66200
C          5.92400       11.16800        3.85400
H          4.92000       11.37400        4.22500
H          6.65600       11.51600        4.58300
H          6.06400       11.70500        2.91600
C          6.83400        7.28800        1.68100
O          6.20500        7.98500        0.89000
N          6.77100        5.95300        1.67400
H          7.37600        5.47800        2.33500
C          6.05400        5.11700        0.69500
H          6.24000        4.08700        0.99700
C          4.53000        5.32000        0.79000
H          4.26600        6.25100        0.28600
H          4.03500        4.51300        0.24800
C          3.98000        5.35600        2.20600
C          3.63100        6.58800        2.79300
H          3.74100        7.50400        2.22700
C          3.14500        6.62900        4.11400
H          2.87300        7.56800        4.57200
C          3.00800        5.43600        4.85200
O          2.54200        5.48300        6.12700
H          2.45600        4.61000        6.51000
C          3.35500        4.19900        4.26400
H          3.25000        3.28400        4.82600
C          3.84100        4.16300        2.94200
H          4.10700        3.21800        2.48900
C          6.60000        5.21100       -0.74700
O          5.91100        4.86300       -1.70300
N          7.85200        5.65400       -0.91300
H          8.35000        5.93400       -0.08200
C          8.53800        5.86100       -2.20100
H          7.82900        6.32300       -2.88900
C          9.70200        6.85100       -1.99800
H         10.46800        6.36000       -1.39500
H         10.14400        7.06500       -2.97200
C          9.38000        8.16900       -1.35000
C          8.16000        8.75000       -1.28400
H          7.24200        8.32600       -1.67600
N          8.23900        9.93100       -0.57800
H          7.42500       10.48700       -0.35600
C          9.52400       10.18600       -0.15800
C         10.09400       11.21200        0.60900
H          9.48000       12.01700        0.98500
C         11.47400       11.18500        0.86700
H         11.93500       11.97300        1.44700
C         12.26200       10.13900        0.35200
H         13.32700       10.12900        0.54000
C         11.67500        9.10900       -0.41100
H         12.29100        8.31200       -0.80100
C         10.28800        9.09700       -0.67500
C          8.99600        4.55000       -2.88100
O         10.14000        4.40300       -3.29200
N          8.12700        3.55400       -2.98500
H          8.42500        2.69800       -3.42000
H          7.17900        3.69100       -2.66000
