69
0 1
H         18.00600       15.83000       -5.67200
C         17.30200       15.09300       -6.05600
H         17.82900       14.17300       -6.29600
H         16.81300       15.48400       -6.94700
C         16.26800       14.80500       -4.99500
O         16.43500       15.20900       -3.85100
N         15.20400       14.09800       -5.37600
H         15.14800       13.81300       -6.34400
C         14.07700       13.76000       -4.48900
H         14.44100       13.82400       -3.46700
C         12.94300       14.80200       -4.66400
H         13.33600       15.67500       -5.18700
H         12.16500       14.38700       -5.30600
C         12.29300       15.31500       -3.36100
H         11.46500       15.96300       -3.64800
C         11.72500       14.20800       -2.47100
H         11.21300       14.64900       -1.61700
H         11.00700       13.61900       -3.04100
H         12.51900       13.55300       -2.11300
C         13.26200       16.15800       -2.52900
H         14.09100       15.55300       -2.16800
H         13.66000       16.96800       -3.14000
H         12.73500       16.58900       -1.67800
C         13.62700       12.29500       -4.65800
O         12.45300       11.95900       -4.53400
N         14.56800       11.40700       -4.98700
H         15.51800       11.73500       -5.07500
C         14.29300       10.00300       -5.33300
H         13.47200        9.98400       -6.05100
C         15.53300        9.39400       -6.01200
H         16.15500        8.94600       -5.23600
H         15.20700        8.58700       -6.67000
C         16.40400       10.34000       -6.79800
C         17.75500       10.36600       -6.75000
H         18.36400        9.69900       -6.14900
N         18.23500       11.36300       -7.57600
H         19.22000       11.55100       -7.70600
C         17.21100       12.04900       -8.19100
C         17.18700       13.14600       -9.06400
H         18.10800       13.60500       -9.39000
C         15.94800       13.64000       -9.50600
H         15.90900       14.48300      -10.18400
C         14.75800       13.02800       -9.07600
H         13.80600       13.40300       -9.42800
C         14.79500       11.92100       -8.20600
H         13.87100       11.45900       -7.89200
C         16.02300       11.40100       -7.73500
C         13.83200        9.16500       -4.12700
O         13.20900        8.12200       -4.28900
N         14.11400        9.65300       -2.91800
H         14.66900       10.50000       -2.88300
C         13.61000        9.17800       -1.62700
H         13.58600        8.08700       -1.62800
C         14.59700        9.65900       -0.55000
H         14.23000        9.37600        0.43700
H         15.55100        9.15300       -0.70200
C         14.84900       11.15100       -0.58200
N         15.64800       11.81200       -1.52100
C         15.60600       13.11200       -1.19100
H         16.13800       13.89800       -1.71400
N         14.80000       13.29900       -0.13200
H         14.60100       14.19200        0.29800
C         14.31100       12.07300        0.26500
H         13.63300       11.86600        1.08300
C         12.17900        9.65100       -1.29900
O         11.65600        9.33200       -0.23800
N         11.52400       10.42900       -2.15100
H         10.59200       10.72000       -1.91300
H         11.95100       10.71500       -3.02200
