62
0 1
H          7.82400        6.95400        4.51000
C          6.87100        6.83200        3.99800
H          6.17800        6.27700        4.62700
H          7.02400        6.29600        3.06200
C          6.29300        8.19200        3.69300
O          6.05900        8.51900        2.53600
N          6.07000        8.99700        4.73300
H          6.30000        8.65300        5.65100
C          5.44100       10.32400        4.62700
H          4.45900       10.19100        4.17100
C          5.25400       10.87000        6.05800
H          4.66600       10.14900        6.62800
H          6.23700       10.94600        6.52500
C          4.56800       12.24800        6.16500
H          5.16400       12.99900        5.64700
C          3.15100       12.24100        5.58700
H          3.18900       12.06300        4.51300
H          2.55000       11.46900        6.06600
H          2.68500       13.21300        5.74900
C          4.47600       12.65200        7.63700
H          4.02500       13.64100        7.71700
H          3.86700       11.93500        8.18800
H          5.47400       12.69100        8.07200
C          6.21800       11.30600        3.72500
O          5.62700       12.21200        3.14200
N          7.52700       11.09900        3.55400
H          7.94200       10.28400        3.98600
C          8.38100       11.87100        2.64300
H          8.28200       12.93300        2.87200
C          9.83900       11.44600        2.87200
H         10.49600       12.09500        2.29200
H         10.09300       11.56500        3.92600
C         10.08300       10.01500        2.46700
N          9.70200        8.88800        3.20000
C          9.92200        7.84100        2.38900
H          9.69500        6.81200        2.63600
N         10.39200        8.25300        1.20000
H         10.46900        7.67600        0.36200
C         10.49800        9.62200        1.23000
H         10.75700       10.27300        0.40500
C          8.01000       11.70100        1.15800
O          8.45300       12.49800        0.33700
N          7.20800       10.69100        0.79700
H          6.89700       10.04100        1.51100
C          6.67600       10.52100       -0.56100
H          7.48800       10.69600       -1.26700
C          6.15200        9.08300       -0.74800
H          5.34600        8.91400       -0.03400
H          5.71900        8.98700       -1.74500
C          7.20500        7.97300       -0.56400
H          7.62200        8.03300        0.44000
H          6.69500        7.01400       -0.65300
C          8.35700        7.97500       -1.57100
O          9.42300        7.43500       -1.31600
N          8.22300        8.56300       -2.74100
H          7.36700        9.02800       -2.99000
H          9.02100        8.52900       -3.35000
C          5.56600       11.53100       -0.91700
O          5.15300       11.59800       -2.06900
N          5.05000       12.31000        0.02900
H          4.33500       12.96700       -0.23100
H          5.38600       12.25100        0.98000
