69
0 1
H          9.71900        3.40000        2.35800
C          9.40600        2.80500        1.50300
H          9.61100        1.75500        1.70100
H          9.94600        3.12000        0.61100
C          7.92600        2.98000        1.26800
O          7.22400        2.00900        1.01000
N          7.45500        4.22400        1.34900
H          8.10900        4.96400        1.55100
C          6.05600        4.60100        1.08500
H          5.40900        3.75800        1.33100
C          5.66900        5.79200        1.98600
H          6.27500        6.65200        1.69700
H          4.62600        6.04400        1.79300
C          5.83800        5.55900        3.50100
H          6.88400        5.35100        3.72500
C          5.43400        6.82400        4.26000
H          4.38400        7.05200        4.07600
H          5.58800        6.67700        5.32900
H          6.04600        7.66300        3.93000
C          4.98300        4.40000        4.01600
H          5.31900        3.46300        3.57300
H          5.08300        4.32000        5.09900
H          3.93600        4.56400        3.76200
C          5.78000        4.92500       -0.39800
O          4.64900        5.22900       -0.76600
N          6.81000        4.89200       -1.24600
H          7.71000        4.60800       -0.88700
C          6.78100        5.33900       -2.63700
H          5.79300        5.12500       -3.04600
C          7.00600        6.86400       -2.71200
H          6.88600        7.16600       -3.75300
H          6.23000        7.36800       -2.13500
C          8.38100        7.36900       -2.23500
H          9.16400        6.82100       -2.75800
H          8.46800        8.41400       -2.53300
S          8.70300        7.28800       -0.44600
C         10.44100        7.79600       -0.43700
H         11.03100        7.09200       -1.02400
H         10.53400        8.79400       -0.86700
H         10.81200        7.81000        0.58800
C          7.81300        4.55700       -3.45800
O          8.92700        4.31500       -2.99400
N          7.43600        4.15700       -4.67500
H          6.53600        4.45000       -5.02500
C          8.18100        3.21000       -5.51200
H          9.24600        3.29400       -5.29000
C          7.72700        1.77700       -5.18300
H          6.65800        1.68800       -5.38400
H          8.24200        1.08500       -5.85000
C          7.99300        1.33100       -3.77600
C          7.10900        1.38100       -2.75200
H          6.08900        1.73500       -2.82700
N          7.72400        0.97000       -1.58600
H          7.29100        1.03400       -0.66600
C          9.03500        0.60700       -1.80400
C         10.04600        0.12600       -0.96000
H          9.84100       -0.04500        0.08600
C         11.31700       -0.13800       -1.49700
H         12.10800       -0.51200       -0.86100
C         11.55900        0.08400       -2.86500
H         12.53800       -0.11900       -3.27400
C         10.53400        0.56700       -3.70400
H         10.73200        0.73100       -4.75100
C          9.24300        0.83900       -3.19600
C          7.97900        3.51500       -7.00200
O          6.99800        4.13800       -7.39500
N          8.88800        3.07300       -7.86000
H          9.68700        2.55600       -7.53400
H          8.74900        3.26800       -8.83800
