62
0 1
H          9.89100       10.43600       -2.68500
C         10.80500       10.45600       -2.09300
H         11.47300       11.22400       -2.47900
H         11.29300        9.48300       -2.14200
C         10.45800       10.77200       -0.65900
O          9.29700       11.00600       -0.34900
N         11.47400       10.75400        0.20600
H         12.35100       10.43200       -0.17800
C         11.43800       10.89600        1.67600
H         12.46800       10.80900        2.02600
C         10.93900       12.29000        2.11700
H          9.97100       12.50400        1.66400
H         10.77900       12.23700        3.19500
C         11.90100       13.46800        1.85800
H         12.89300       13.20600        2.22700
C         12.01400       13.87300        0.38500
H         12.52800       13.10000       -0.17900
H         11.01900       14.03200       -0.03400
H         12.59100       14.79300        0.29600
C         11.41400       14.69500        2.63300
H         12.10700       15.52400        2.49100
H         10.42400       14.98900        2.28300
H         11.36500       14.46500        3.69700
C         10.68900        9.75800        2.39500
O         11.21700        9.18800        3.34600
N          9.51800        9.35700        1.89700
H          9.14000        9.89900        1.12600
C          8.76500        8.17600        2.34300
H          8.58400        8.27200        3.41400
C          7.40700        8.18900        1.61900
H          6.93300        9.15700        1.78900
H          7.57300        8.07400        0.54700
C          6.43600        7.10000        2.09500
H          6.81300        6.12000        1.80200
H          6.39300        7.13300        3.18500
S          4.74200        7.27100        1.46800
C          4.99100        6.89300       -0.28800
H          4.02800        6.89800       -0.79700
H          5.63800        7.64400       -0.74100
H          5.44700        5.90800       -0.38900
C          9.52800        6.85000        2.13200
O          9.15600        5.82800        2.69900
N         10.61700        6.85600        1.35200
H         10.90200        7.73200        0.94000
C         11.52700        5.71300        1.19400
H         10.92800        4.80800        1.07700
C         12.36300        5.91100       -0.08100
H         12.84500        4.96400       -0.32900
H         11.70500        6.17200       -0.91100
C         13.43400        6.96800        0.04900
N         13.25500        8.34800       -0.09000
C         14.45100        8.89700        0.18100
H         14.65900        9.95800        0.16600
N         15.35100        7.94700        0.48400
H         16.31400        8.10900        0.74600
C         14.72600        6.72400        0.41100
H         15.14800        5.75300        0.63700
C         12.44300        5.47000        2.41000
O         13.19800        4.50500        2.42500
N         12.44000        6.33100        3.42200
H         11.84600        7.14800        3.39500
H         13.04000        6.14900        4.20800
