66
0 1
H          5.47800        8.75000       -6.53700
C          4.66100        8.49000       -5.86500
H          4.61600        7.40800       -5.75200
H          3.72400        8.86300       -6.27300
C          4.91100        9.12800       -4.51900
O          5.91000        9.81400       -4.34400
N          4.00000        8.89100       -3.57400
H          3.21000        8.32300       -3.83400
C          4.00200        9.46100       -2.21200
H          4.95500        9.96400       -2.04400
C          2.88000       10.51700       -2.08700
H          1.92500       10.01500       -2.24900
H          2.87700       10.90600       -1.06800
C          2.97600       11.71700       -3.04900
H          3.02700       11.36400       -4.07900
C          1.72500       12.58600       -2.90900
H          1.64800       12.97000       -1.89100
H          1.77900       13.42300       -3.60500
H          0.83800       11.99600       -3.14000
C          4.19400       12.59700       -2.76200
H          5.11000       12.03600       -2.93800
H          4.19300       13.45800       -3.42900
H          4.17700       12.94100       -1.72800
C          3.91400        8.37900       -1.11200
O          3.48300        8.64800        0.00800
N          4.30600        7.14100       -1.43000
H          4.71700        7.02600       -2.34600
C          4.20700        5.92000       -0.60500
H          3.19700        5.89100       -0.19600
C          4.36200        4.68500       -1.51900
H          4.18200        3.79100       -0.92100
H          3.59600        4.71300       -2.29500
C          5.74000        4.54500       -2.18900
H          6.52000        4.67800       -1.44000
H          5.82400        3.52500       -2.56700
S          6.05500        5.67100       -3.58100
C          7.78300        5.25300       -3.93000
H          8.39700        5.45500       -3.05100
H          7.86100        4.19700       -4.19000
H          8.14300        5.85600       -4.76400
C          5.15200        5.87700        0.62200
O          5.64500        4.82000        1.00600
N          5.42800        7.03600        1.21300
H          4.96600        7.84700        0.82600
C          6.39500        7.27700        2.29000
H          6.40300        6.42000        2.96500
C          7.79600        7.42200        1.66600
H          8.50700        7.73700        2.43200
H          8.11900        6.44000        1.31900
C          7.85100        8.39300        0.49800
C          7.95300        9.77900        0.72900
H          8.04800       10.15400        1.74100
C          7.91700       10.67700       -0.35500
H          7.98400       11.74200       -0.19200
C          7.77800       10.19000       -1.67100
O          7.68300       11.05800       -2.70900
H          7.17500       10.66600       -3.44000
C          7.69300        8.80100       -1.90300
H          7.59800        8.43100       -2.91200
C          7.73300        7.90600       -0.81800
H          7.66000        6.84200       -0.99300
C          6.03400        8.51700        3.13700
O          6.74000        8.85800        4.07800
N          4.94900        9.22700        2.83900
H          4.74200       10.03100        3.40700
H          4.35400        8.96700        2.06700
