69
0 1
H          7.02400        7.59400        3.09600
C          6.12000        7.25200        2.59700
H          5.24800        7.55700        3.17600
H          6.13400        6.16800        2.50300
C          6.04000        7.88000        1.22600
O          5.13500        8.65900        0.96100
N          7.00000        7.54200        0.36600
H          7.70700        6.90100        0.68800
C          7.16900        8.10800       -0.98200
H          6.22800        8.56100       -1.29200
C          8.24800        9.21700       -0.96500
H          9.18200        8.77400       -0.61700
H          8.41000        9.56100       -1.98800
C          7.93500       10.45500       -0.10200
H          7.72400       10.15000        0.92300
C          9.15300       11.38000       -0.07700
H          9.38900       11.71800       -1.08700
H          8.94700       12.24500        0.55300
H         10.01200       10.84800        0.33200
C          6.75000       11.25700       -0.64400
H          5.84300       10.66000       -0.57900
H          6.60900       12.15500       -0.04300
H          6.92900       11.53900       -1.68200
C          7.45600        7.01600       -2.03200
O          8.36000        7.14600       -2.85300
N          6.69300        5.91800       -2.01000
H          5.92500        5.88300       -1.35400
C          6.77800        4.85400       -3.03100
H          7.80400        4.48600       -3.08700
C          5.85700        3.69600       -2.62200
H          5.90900        2.91800       -3.38600
H          6.23100        3.26400       -1.69300
C          4.42100        4.08100       -2.41700
C          3.46600        4.07300       -3.37500
H          3.62100        3.75600       -4.40000
N          2.29300        4.59300       -2.86400
H          1.45900        4.73300       -3.41500
C          2.43500        4.96900       -1.54600
C          1.56300        5.55800       -0.62000
H          0.55400        5.81200       -0.90700
C          2.02300        5.81600        0.68200
H          1.36500        6.27100        1.41000
C          3.34000        5.47700        1.04000
H          3.67800        5.66800        2.04900
C          4.21100        4.89300        0.09900
H          5.21500        4.62600        0.39100
C          3.78300        4.63200       -1.22200
C          6.40500        5.36200       -4.43700
O          6.90100        4.86000       -5.43900
N          5.55400        6.38800       -4.50000
H          5.12400        6.68000       -3.63000
C          5.19400        7.18000       -5.68000
H          5.12000        6.52000       -6.54500
C          3.81300        7.80200       -5.40800
H          3.54200        8.48300       -6.21600
H          3.07200        7.00200       -5.39300
C          3.73100        8.52900       -4.08500
N          3.60700        7.90500       -2.84200
C          3.59200        8.88600       -1.93000
H          3.48800        8.73100       -0.86200
N          3.73700       10.08000       -2.53100
H          3.77200       10.96900       -2.05200
C          3.83100        9.87500       -3.89200
H          3.96800       10.62000       -4.66500
C          6.22800        8.26400       -6.05000
O          5.97300        9.08900       -6.91900
N          7.38700        8.32300       -5.40800
H          8.04600        9.03400       -5.67600
H          7.61400        7.65000       -4.68900
