63
0 1
H         11.16800        0.44300        2.41700
C         10.13900        0.36700        2.06900
H          9.45500        0.36500        2.91600
H         10.01700       -0.55500        1.50200
C          9.82900        1.53900        1.17000
O          9.54100        1.35000       -0.00700
N          9.88700        2.74900        1.73000
H         10.07200        2.79400        2.71800
C          9.62100        4.01200        1.01900
H          9.45300        3.79600       -0.03700
C          8.33300        4.66800        1.56200
H          8.44200        4.87900        2.62600
H          8.23200        5.62900        1.05500
C          7.03800        3.86300        1.31300
H          7.14400        3.26600        0.40700
C          6.67900        2.94500        2.48700
H          6.54900        3.53000        3.39700
H          5.74900        2.41900        2.26600
H          7.45600        2.20200        2.64100
C          5.85500        4.81500        1.11700
H          5.72300        5.43900        2.00100
H          6.03600        5.45200        0.25000
H          4.94500        4.24300        0.93800
C         10.80500        5.00100        1.04200
O         10.74100        6.04600        0.40000
N         11.89800        4.68700        1.75000
H         11.93300        3.77900        2.18200
C         13.07200        5.56600        1.89200
H         12.70400        6.54100        2.21800
C         13.99800        5.03500        3.00700
H         14.66200        5.85800        3.27400
H         13.40100        4.81000        3.89200
C         14.88800        3.81900        2.66800
H         15.46300        4.02100        1.76500
C         15.87300        3.58400        3.81400
H         15.33600        3.36300        4.73600
H         16.53200        2.75000        3.57100
H         16.48600        4.47400        3.95900
C         14.09600        2.52300        2.47200
H         13.49800        2.58200        1.56500
H         14.78700        1.68800        2.35000
H         13.45800        2.33400        3.33500
C         13.83500        5.82900        0.57700
O         14.61900        6.76800        0.50100
N         13.59100        5.02300       -0.45700
H         12.97200        4.24000       -0.29300
C         14.07600        5.22300       -1.82600
H         15.11600        5.54700       -1.76100
C         14.05800        3.87400       -2.58100
H         14.63600        4.01200       -3.49600
H         14.58100        3.12100       -1.98900
C         12.67400        3.32500       -2.99700
H         12.08400        4.10800       -3.47300
H         12.83200        2.54800       -3.74400
C         11.85100        2.70000       -1.86900
O         12.19700        2.61900       -0.69500
O         10.64800        2.23100       -2.25200
H         10.22100        1.85000       -1.46100
C         13.32500        6.32700       -2.60300
O         13.65000        6.59700       -3.75300
N         12.29800        6.95500       -2.04100
H         11.83000        7.67200       -2.56900
H         12.00100        6.72100       -1.10300
