76
0 1
H         12.39100        8.81300       -2.30000
C         12.52100        7.92100       -1.68800
H         13.38800        8.05200       -1.04400
H         12.65700        7.05600       -2.33300
C         11.29200        7.73500       -0.83400
O         10.42400        8.59600       -0.79800
N         11.22000        6.60300       -0.13400
H         11.99200        5.96100       -0.21600
C         10.07800        6.17500        0.68800
H          9.16300        6.42300        0.14800
C         10.11300        4.63800        0.88600
H         11.00200        4.38200        1.46500
H          9.25300        4.37300        1.50200
C         10.05500        3.71400       -0.34900
H          9.89900        2.70300        0.02700
C          8.88300        4.04300       -1.27200
H          7.95800        4.04200       -0.69700
H          9.02400        5.02200       -1.72900
H          8.81100        3.29000       -2.05700
C         11.34100        3.67800       -1.18100
H         11.45300        4.59000       -1.76400
H         12.20100        3.53800       -0.52800
H         11.29100        2.83700       -1.87300
C          9.98400        6.93300        2.03600
O          9.69000        6.34200        3.07400
N         10.27700        8.23600        2.05300
H         10.47200        8.67900        1.16000
C         10.47200        9.03000        3.27700
H         11.18800        8.50100        3.90700
C         11.09100       10.38600        2.91100
H         10.40100       10.92300        2.25900
H         11.20400       10.97600        3.82200
C         12.43400       10.32200        2.24500
C         13.57200        9.89200        2.83700
H         13.64000        9.55100        3.86300
N         14.62200        9.97100        1.94400
H         15.57300        9.72500        2.18100
C         14.21500       10.46800        0.72500
C         14.89800       10.74300       -0.46900
H         15.95900       10.56200       -0.54600
C         14.18200       11.26800       -1.55900
H         14.69000       11.49200       -2.48700
C         12.80100       11.50500       -1.43900
H         12.25000       11.90500       -2.28000
C         12.12600       11.22000       -0.23500
H         11.06300       11.39600       -0.16400
C         12.81400       10.69600        0.88100
C          9.21800        9.21600        4.15200
O          9.33900        9.65800        5.29000
N          8.02900        8.85700        3.66000
H          8.00100        8.47400        2.72700
C          6.79500        8.79700        4.45700
H          6.79200        9.62800        5.16500
C          5.59100        8.96400        3.52300
H          4.68500        9.02500        4.12800
H          5.68700        9.91400        2.99500
C          5.41600        7.87400        2.50800
C          4.68500        6.75200        2.69200
H          4.13300        6.52100        3.59800
N          4.76700        5.95500        1.56800
H          4.29000        5.06900        1.48100
C          5.56400        6.52500        0.59900
C          5.94100        6.12000       -0.69000
H          5.58000        5.18900       -1.09800
C          6.78700        6.95000       -1.44500
H          7.08400        6.66100       -2.44400
C          7.24600        8.16300       -0.90100
H          7.89800        8.79900       -1.48600
C          6.86200        8.55900        0.39400
H          7.21000        9.50400        0.78700
C          6.00600        7.75300        1.17700
C          6.66000        7.50800        5.29500
O          5.70000        7.35100        6.04200
N          7.57400        6.55000        5.18500
H          7.46700        5.72200        5.74400
H          8.34900        6.65300        4.54400
