60
0 1
H          4.75200        9.67500       13.68400
C          4.09100        8.81500       13.76200
H          3.05200        9.13500       13.69500
H          4.25600        8.31300       14.71500
C          4.39000        7.84800       12.64200
O          4.75300        6.70700       12.89400
N          4.24100        8.30800       11.40100
H          3.94800        9.26600       11.27700
C          4.46600        7.51600       10.18700
H          5.23700        6.76900       10.38700
C          3.16600        6.77400        9.82600
H          2.94400        6.05400       10.61600
H          2.34500        7.49300        9.78200
C          3.21800        6.03100        8.48700
H          3.34100        6.75800        7.68900
H          4.07300        5.35300        8.48100
S          1.71600        5.07700        8.14800
C          1.82400        4.91300        6.34700
H          1.01400        4.27600        5.99300
H          1.72600        5.89600        5.88500
H          2.78000        4.46800        6.07100
C          4.95700        8.41800        9.04900
O          4.38300        9.47700        8.80100
N          5.98800        7.98100        8.32200
H          6.36700        7.06400        8.54400
C          6.66000        8.73300        7.24800
H          6.99800        9.68100        7.67000
C          7.91000        7.94400        6.79800
H          8.56000        8.63200        6.25600
H          8.46000        7.61200        7.68000
C          7.65300        6.73100        5.87800
H          7.24100        7.08800        4.93700
H          8.60700        6.25800        5.64900
C          6.72700        5.66300        6.46100
O          6.72600        5.37800        7.64700
N          5.87100        5.05700        5.67300
H          5.81600        5.29000        4.68400
H          5.32800        4.31700        6.07900
C          5.76100        9.08000        6.04500
O          6.09100        9.96400        5.26000
N          4.63000        8.38300        5.89900
H          4.45700        7.65900        6.57700
C          3.60700        8.59900        4.86700
H          3.83200        9.52400        4.33500
C          3.64800        7.44400        3.84700
H          3.37700        6.51700        4.35000
H          2.90200        7.63000        3.07300
C          4.97400        7.23600        3.15400
N          5.54100        5.99200        2.86400
C          6.66800        6.24700        2.18200
H          7.33600        5.48900        1.79400
N          6.84300        7.57200        2.04600
H          7.61100        8.01900        1.56300
C          5.78100        8.21200        2.64400
H          5.60900        9.27900        2.70100
C          2.20600        8.80800        5.47400
O          1.19600        8.55300        4.83200
N          2.10700        9.23200        6.72900
H          1.18700        9.35500        7.11700
H          2.93600        9.46000        7.26200
