64
0 1
H          7.27300        5.71600       -3.72900
C          8.15200        6.32300       -3.52000
H          7.97100        7.34800       -3.83900
H          9.01100        5.91500       -4.04900
C          8.42100        6.30200       -2.03400
O          7.69000        5.66600       -1.28100
N          9.47100        7.00000       -1.60300
H         10.01100        7.52300       -2.27400
C          9.81900        7.12500       -0.18300
H          9.70300        6.14100        0.27300
C         11.29600        7.53200       -0.03000
H         11.92100        6.81800       -0.56700
H         11.45100        8.51700       -0.47200
C         11.73800        7.57300        1.44100
H         12.78900        7.86100        1.48000
H         11.17400        8.34900        1.95900
S         11.53200        6.01700        2.35700
C         12.82700        5.00100        1.59700
H         13.79300        5.49500        1.70800
H         12.86200        4.03100        2.09300
H         12.61200        4.85300        0.53900
C          8.85600        8.08000        0.54000
O          9.11800        9.27300        0.66700
N          7.72700        7.54800        1.01000
H          7.53500        6.58100        0.78200
C          6.69000        8.30200        1.72700
H          6.47800        9.20900        1.16000
C          5.40400        7.46100        1.76000
H          4.61700        8.04300        2.24100
H          5.08200        7.27600        0.73400
C          5.54300        6.13100        2.47800
C          5.90300        4.97100        1.76200
H          6.04900        5.01800        0.69000
C          6.08600        3.75100        2.44000
H          6.38400        2.87000        1.89200
C          5.89300        3.68800        3.83700
O          6.11300        2.52500        4.50700
H          6.06600        1.76900        3.91900
C          5.49900        4.84200        4.54500
H          5.34900        4.78900        5.61300
C          5.33500        6.06300        3.86800
H          5.06200        6.95400        4.42200
C          7.10800        8.76400        3.14000
O          6.42600        9.59900        3.73000
N          8.23400        8.27200        3.67500
H          8.73400        7.58100        3.14200
C          8.86600        8.75600        4.91500
H          8.08500        8.92800        5.65700
C          9.80500        7.67700        5.48300
H         10.57600        7.44100        4.75000
H         10.30100        8.07500        6.36900
C          9.09800        6.41100        5.89400
N          8.32400        6.27000        7.04700
C          7.87100        5.01000        7.03300
H          7.21700        4.58800        7.78400
N          8.30700        4.36400        5.93900
H          8.01600        3.43500        5.65900
C          9.08400        5.23300        5.20600
H          9.57800        5.03800        4.26500
C          9.58300       10.10700        4.71200
O         10.78100       10.24500        4.93200
N          8.87200       11.12200        4.24400
H          9.33500       11.99900        4.07800
H          7.89100       10.98600        4.04300
