57
0 1
H         -0.85600       10.35000        7.83300
C         -0.08700       11.06200        7.54100
H          0.79300       10.92900        8.17000
H         -0.46100       12.07900        7.64900
C          0.30000       10.82000        6.10200
O          1.45200       10.52400        5.81600
N         -0.66900       10.94300        5.19600
H         -1.59500       11.19100        5.51200
C         -0.49000       10.77100        3.74900
H          0.49900       11.14400        3.48400
C         -0.56200        9.26800        3.42200
H         -0.01900        8.70400        4.18100
H         -1.60400        8.94900        3.47000
C          0.01400        8.88800        2.05300
H         -0.14200        7.81900        1.90600
H         -0.55200        9.40400        1.27900
S          1.78300        9.22900        1.79700
C          2.54400        8.24000        3.11200
H          2.21000        7.20500        3.03700
H          3.62900        8.27700        3.00800
H          2.27200        8.64500        4.08700
C         -1.57100       11.58800        3.00800
O         -2.72000       11.58200        3.45700
N         -1.25800       12.32200        1.91900
C          0.02800       12.37400        1.23700
H          0.37400       11.38500        0.95200
H          0.76400       12.86500        1.87600
C         -0.20200       13.20600       -0.02200
H         -0.59000       12.56800       -0.81800
H          0.70700       13.71500       -0.34300
C         -1.28000       14.18900        0.42300
H         -1.84400       14.57800       -0.42500
H         -0.81600       15.00900        0.97300
C         -2.14700       13.36100        1.38200
H         -2.46200       14.01000        2.20000
C         -3.43300       12.86100        0.70200
O         -4.28200       13.68000        0.36600
N         -3.61700       11.55000        0.50500
H         -2.90700       10.90100        0.81300
C         -4.88500       10.98200        0.02100
H         -5.32100       11.66800       -0.70700
C         -4.60900        9.65000       -0.68900
H         -5.50200        9.36200       -1.24700
H         -3.79900        9.78100       -1.40700
C         -4.25300        8.53000        0.25400
N         -3.03500        8.38300        0.92000
C         -3.16900        7.28500        1.68000
H         -2.39500        6.88500        2.32200
N         -4.39600        6.75700        1.53900
H         -4.74300        5.93800        2.01900
C         -5.09700        7.53400        0.64600
H         -6.12500        7.41200        0.33000
C         -5.94200       10.80200        1.12900
O         -7.06400       10.39400        0.85000
N         -5.62000       11.06400        2.39100
H         -6.32400       10.94400        3.09800
H         -4.68500       11.36700        2.62400
