64
0 1
H         14.35500       14.43100       -9.81000
C         14.37900       14.36200       -8.72300
H         13.41300       14.66100       -8.32000
H         15.16400       15.00800       -8.33400
C         14.66000       12.93100       -8.33100
O         14.70500       12.05200       -9.18400
N         14.83900       12.68400       -7.03300
H         14.77400       13.45500       -6.38900
C         15.05600       11.33700       -6.48500
H         15.67800       10.79700       -7.20000
C         15.86400       11.42300       -5.17300
H         16.79800       11.94600       -5.38200
H         15.30500       12.00700       -4.44000
C         16.21300       10.06000       -4.55000
H         16.93900       10.23000       -3.75400
H         15.32300        9.63800       -4.08600
S         16.89800        8.82900       -5.69500
C         17.15500        7.44800       -4.54700
H         16.20800        7.16700       -4.08700
H         17.55500        6.59200       -5.09200
H         17.86100        7.74200       -3.77100
C         13.73800       10.54600       -6.38000
O         13.28300       10.18300       -5.29800
N         13.10200       10.27900       -7.52300
H         13.48200       10.67600       -8.37700
C         11.83400        9.53600       -7.60200
H         11.12700       10.00200       -6.91400
C         11.26200        9.65900       -9.02200
H         11.91800        9.12800       -9.71300
H         10.28800        9.16800       -9.05100
C         11.08700       11.09200       -9.49300
C         11.91900       11.61600      -10.50300
H         12.68300       10.99600      -10.95200
C         11.78000       12.95500      -10.91300
H         12.42900       13.35200      -11.67800
C         10.80500       13.77800      -10.30900
O         10.67300       15.07500      -10.69000
H         11.18400       15.27100      -11.47600
C          9.97000       13.25500       -9.30100
H          9.22500       13.89200       -8.84800
C         10.10900       11.91300       -8.89700
H          9.46600       11.51300       -8.12400
C         11.94800        8.06000       -7.17400
O         10.93500        7.41000       -6.93900
N         13.17200        7.53400       -7.03900
H         13.95700        8.12900       -7.25100
C         13.46100        6.21700       -6.45200
H         12.63800        5.54200       -6.69100
C         14.74100        5.64000       -7.08300
H         15.57800        6.31000       -6.88600
H         14.96100        4.67200       -6.63000
C         14.60700        5.43700       -8.59600
H         13.77200        4.76000       -8.78400
H         14.38700        6.39300       -9.07100
S         16.09300        4.75100       -9.37200
C         15.51300        4.62700      -11.08400
H         14.64600        3.96800      -11.13000
H         15.24000        5.61600      -11.45200
H         16.30900        4.21800      -11.70700
C         13.56100        6.24100       -4.91100
O         13.90000        5.24000       -4.29200
N         13.31000        7.36500       -4.24900
H         13.05400        8.20900       -4.74200
H         13.36600        7.34800       -3.24500
