59
0 1
H          1.83800        7.86900      -11.37200
C          1.27000        7.36200      -10.59200
H          0.38800        6.89200      -11.02100
H          0.96900        8.08500       -9.83600
C          2.14000        6.31000       -9.94800
O          2.38600        6.36100       -8.74900
N          2.61500        5.35300      -10.74400
H          2.39900        5.41800      -11.72600
C          3.46700        4.23400      -10.30400
H          3.07900        3.88600       -9.34600
C          3.32900        3.07300      -11.31000
H          2.27300        2.91700      -11.53600
H          3.83500        3.34600      -12.23800
C          3.90300        1.74100      -10.80600
H          3.91000        1.03500      -11.63700
H          4.93600        1.88200      -10.49100
S          2.98000        0.98500       -9.44200
C          4.21000       -0.23200       -8.90000
H          5.10700        0.28200       -8.55300
H          3.80100       -0.82500       -8.08200
H          4.46700       -0.89100       -9.73000
C          4.92700        4.67200      -10.04900
O          5.87200        4.10800      -10.59600
N          5.12700        5.71900       -9.24500
H          4.30800        6.13300       -8.81000
C          6.45100        6.30900       -8.98700
H          6.94900        6.46600       -9.94600
C          6.29500        7.67600       -8.29300
H          5.99600        7.51900       -7.25600
H          7.27000        8.16600       -8.28900
C          5.27100        8.62300       -8.95200
H          4.26300        8.30500       -8.68900
H          5.41900        9.62600       -8.55400
C          5.37700        8.68300      -10.47400
O          4.49200        8.35400      -11.25200
O          6.56900        9.08400      -10.95600
H          6.48900        9.04400      -11.90900
C          7.36500        5.37900       -8.16600
O          8.58500        5.45700       -8.25400
N          6.76300        4.47000       -7.39600
H          5.75100        4.50300       -7.34400
C          7.39200        3.35300       -6.68400
H          8.38500        3.65800       -6.34900
C          6.52500        3.04800       -5.45100
H          6.95600        2.21400       -4.89700
H          6.53300        3.91800       -4.79300
C          5.08600        2.73300       -5.79300
N          4.16100        3.65000       -6.30100
C          3.02400        2.96600       -6.48200
H          2.10900        3.39100       -6.87500
N          3.19000        1.68000       -6.12600
H          2.48700        0.96000       -6.20800
C          4.48800        1.51200       -5.69500
H          4.96000        0.59900       -5.35800
C          7.59000        2.09800       -7.55900
O          7.89400        1.02500       -7.05000
N          7.39500        2.16900       -8.87000
H          7.54700        1.34300       -9.42200
H          7.12700        3.04300       -9.30300
