60
0 1
H          8.86600        3.41600        3.88000
C          8.07800        3.48500        3.13000
H          7.12100        3.65000        3.62100
H          8.04700        2.56300        2.55200
C          8.37900        4.64300        2.20900
O          9.37900        5.32800        2.38600
N          7.50400        4.87100        1.23000
H          6.70200        4.26500        1.17000
C          7.64000        5.92800        0.21400
H          8.67800        5.93900       -0.12000
C          6.76000        5.60600       -1.01000
H          5.72900        5.46000       -0.68400
H          6.77500        6.45000       -1.70000
C          7.22300        4.35700       -1.77200
H          7.19500        3.50200       -1.09700
H          6.51200        4.16300       -2.57600
S          8.88600        4.45000       -2.50000
C          8.65700        5.74200       -3.75500
H          9.57600        5.85100       -4.33300
H          7.84400        5.46600       -4.42600
H          8.42900        6.69400       -3.27700
C          7.36200        7.34100        0.76800
O          6.44000        8.02500        0.32700
N          8.17600        7.79800        1.72400
H          8.88700        7.15700        2.06400
C          8.16900        9.16500        2.27000
H          7.12900        9.45300        2.42500
C          8.86100        9.15600        3.64800
H          8.43600        8.35300        4.25200
H          9.92500        8.95000        3.51400
C          8.70300       10.46900        4.42800
H          9.26600       10.37700        5.35700
H          9.14100       11.28800        3.85900
S          6.99100       10.89800        4.84600
C          7.27500       12.46600        5.70700
H          7.91300       12.29700        6.57500
H          7.75800       13.17300        5.03200
H          6.32000       12.87700        6.03600
C          8.76900       10.17500        1.26600
O          9.77800       10.83200        1.52000
N          8.18200       10.23900        0.06900
H          7.35000        9.67100       -0.05200
C          8.71500       10.90800       -1.12400
H          9.79700       10.76500       -1.11900
C          8.16100       10.18200       -2.36500
H          8.23300        9.10500       -2.19900
H          7.10800       10.43500       -2.49300
C          8.93300       10.50100       -3.65000
H          8.79900       11.55100       -3.91100
H          9.99400       10.33300       -3.46300
S          8.45700        9.48300       -5.07500
C          6.81200       10.16100       -5.42400
H          6.40600        9.68600       -6.31700
H          6.14500        9.97100       -4.58300
H          6.88700       11.23600       -5.59100
C          8.47900       12.43400       -1.12200
O          7.93100       13.00800       -2.05400
N          8.85000       13.11600       -0.04800
H          9.29800       12.62800        0.71700
H          8.68700       14.10900       -0.02600
