60
0 1
H         17.22600       14.61000       -3.59500
C         16.82400       13.61900       -3.79800
H         17.39100       12.87100       -3.24500
H         16.88300       13.40600       -4.86500
C         15.38100       13.56500       -3.36300
O         15.01100       12.73200       -2.54400
N         14.55000       14.43700       -3.93400
H         14.93800       15.08600       -4.60300
C         13.11900       14.56500       -3.60500
H         13.03300       14.81200       -2.54600
C         12.48600       15.70400       -4.42400
H         12.47700       15.43400       -5.48100
H         11.44900       15.80900       -4.10200
C         13.17100       17.06800       -4.24600
H         12.46600       17.84200       -4.55300
H         13.37200       17.21600       -3.18400
S         14.71600       17.33700       -5.17000
C         14.09300       17.41800       -6.87200
H         13.66000       16.46000       -7.15700
H         13.33700       18.19900       -6.95000
H         14.91800       17.65000       -7.54600
C         12.31700       13.27000       -3.82900
O         11.25500       13.09400       -3.24000
N         12.83900       12.34700       -4.64000
H         13.72200       12.57300       -5.08700
C         12.30700       11.00000       -4.86200
H         11.28000       11.08300       -5.21900
C         13.15300       10.29300       -5.93900
H         14.18500       10.19300       -5.59600
H         12.75200        9.28600       -6.05800
C         13.12700       10.96300       -7.32800
H         13.33900       10.19100       -8.06800
H         12.12600       11.34300       -7.53400
C         14.14600       12.08700       -7.54300
O         14.77300       12.61600       -6.63900
N         14.34600       12.51700       -8.76800
H         15.04000       13.23500       -8.87700
H         13.86200       12.10400       -9.54400
C         12.26600       10.14000       -3.58300
O         11.52100        9.16500       -3.54100
N         13.02600       10.49900       -2.54000
H         13.64500       11.29600       -2.64800
C         12.96900        9.86800       -1.21400
H         12.97200        8.78600       -1.35200
C         14.24700       10.26700       -0.45000
H         15.11000       10.13800       -1.10500
H         14.18200       11.32200       -0.18300
C         14.50600        9.45500        0.82500
H         15.36200        9.89200        1.33900
H         13.64900        9.54000        1.49200
S         14.86400        7.70000        0.53800
C         14.77400        7.09600        2.24300
H         14.97200        6.02400        2.25800
H         15.51400        7.61100        2.85500
H         13.77600        7.28300        2.64200
C         11.68600       10.22100       -0.42600
O         11.38200        9.61200        0.59300
N         10.90200       11.20300       -0.85700
H         11.12700       11.70500       -1.70400
H         10.06200       11.40100       -0.34100
