59
0 1
H         -6.95500        6.95600       -0.04700
C         -6.52300        6.03000        0.32500
H         -7.01800        5.17800       -0.14000
H         -6.64000        5.96800        1.40600
C         -5.05200        5.98400       -0.00900
O         -4.59100        5.03600       -0.63800
N         -4.31100        7.00500        0.42100
H         -4.76400        7.70200        0.99000
C         -2.84600        7.06200        0.31900
H         -2.53400        6.40700       -0.49600
C         -2.38300        8.48200       -0.04700
H         -1.30900        8.45600       -0.23100
H         -2.87400        8.78200       -0.97400
C         -2.67400        9.54000        1.02900
H         -3.74100        9.52500        1.25200
H         -2.13600        9.28700        1.94300
S         -2.23600       11.23700        0.55800
C         -0.42500       11.14300        0.58700
H         -0.09100       10.81400        1.57100
H         -0.07700       10.44300       -0.17200
H         -0.01100       12.13000        0.37800
C         -2.17600        6.54700        1.60400
O         -2.63200        6.82900        2.70900
N         -1.08100        5.80000        1.46200
H         -0.73500        5.62100        0.53000
C         -0.35700        5.14900        2.56000
H         -0.58300        5.66500        3.49500
C         -0.78600        3.67200        2.70500
H         -0.58100        3.13600        1.77700
H         -0.15600        3.22300        3.47400
C         -2.25000        3.44000        3.14200
H         -2.33400        2.40600        3.47700
H         -2.47800        4.08700        3.98900
C         -3.32500        3.64300        2.06900
O         -4.47700        3.97300        2.31000
O         -2.93100        3.47600        0.78800
H         -3.66800        3.79200        0.23700
C          1.16100        5.24700        2.33600
O          1.61900        5.40500        1.20500
N          1.94500        5.14000        3.41200
H          1.52000        4.99100        4.31700
C          3.41100        5.16000        3.38000
H          3.74300        4.65400        2.47200
C          3.89600        6.62300        3.33300
H          3.44200        7.11800        2.47300
H          3.55500        7.14000        4.23100
C          5.41900        6.78200        3.23100
H          5.64200        7.83900        3.08300
H          5.86400        6.49000        4.18300
S          6.23500        5.83600        1.91100
C          5.42200        6.52000        0.44000
H          5.55100        7.60200        0.41800
H          5.87000        6.08700       -0.45500
H          4.35900        6.27800        0.45500
C          3.98400        4.39200        4.58100
O          3.34500        4.29800        5.62300
N          5.17900        3.82900        4.46400
H          5.54800        3.32300        5.25200
H          5.70500        3.93200        3.60900
