60
0 1
H         10.15000       11.65600        3.19600
C         10.21200       12.65600        3.62500
H         10.70800       12.60700        4.59300
H          9.20800       13.06100        3.74400
C         11.00200       13.54300        2.69500
O         11.46600       13.09100        1.65600
N         11.20200       14.80100        3.08900
H         10.83100       15.08200        3.98400
C         11.91500       15.82000        2.29700
H         11.37900       15.93800        1.35400
C         11.86900       17.17300        3.03400
H         12.14900       17.95200        2.32300
H         10.84600       17.37600        3.35400
C         12.80900       17.29200        4.24500
H         13.83700       17.14400        3.91300
H         12.73600       18.31100        4.62500
S         12.47500       16.16000        5.62600
C         13.85000       16.60300        6.72100
H         14.79800       16.41500        6.21600
H         13.78300       17.65800        6.98700
H         13.80100       16.00000        7.62800
C         13.36300       15.44000        1.93200
O         13.91200       15.97500        0.97400
N         13.96300       14.48700        2.65400
H         13.44900       14.10600        3.43200
C         15.27000       13.89300        2.34000
H         16.02000       14.68400        2.34800
C         15.62200       12.87600        3.44000
H         16.66800       12.58500        3.33500
H         15.50000       13.35200        4.41400
C         14.75600       11.60900        3.38500
H         13.70800       11.88800        3.26800
H         15.05100       11.02400        2.51300
S         14.88600       10.55200        4.84800
C         13.96200        9.11500        4.24300
H         12.94600        9.41300        3.98400
H         14.45500        8.70900        3.35900
H         13.92900        8.35000        5.01900
C         15.32700       13.22700        0.95100
O         16.41300       13.06600        0.40500
N         14.17700       12.85000        0.37800
H         13.31200       13.00400        0.88200
C         14.07800       12.25400       -0.96100
H         14.93300       11.59200       -1.10500
C         12.79700       11.40600       -1.06100
H         11.93000       12.06500       -1.00200
H         12.77300       10.91400       -2.03300
C         12.66500       10.33400        0.03400
H         12.52300       10.83200        0.99300
H         11.76200        9.75700       -0.16500
S         14.05100        9.17400        0.21700
C         14.05300        8.37800       -1.41200
H         14.28900        9.11200       -2.18200
H         14.80800        7.59200       -1.42800
H         13.07400        7.94100       -1.61000
C         14.13600       13.29000       -2.10300
O         14.05500       12.92700       -3.27100
N         14.24700       14.58200       -1.81600
H         14.31000       14.88900       -0.85500
H         14.29200       15.23700       -2.57700
