60
0 1
H          3.69100        8.36400        0.01600
C          4.48500        9.03300       -0.31400
H          4.82600        9.63800        0.52500
H          4.11200        9.67800       -1.10700
C          5.63600        8.20900       -0.83900
O          5.54200        6.99000       -0.90300
N          6.72400        8.88200       -1.20500
H          6.69300        9.88600       -1.12200
C          7.95600        8.26200       -1.73000
H          8.05200        7.27100       -1.28300
C          7.83400        8.06900       -3.25300
H          8.69400        7.50000       -3.61000
H          6.93900        7.48300       -3.45900
C          7.76600        9.39200       -4.03100
H          6.92300        9.98000       -3.66800
H          8.67900        9.95500       -3.83700
S          7.60200        9.21800       -5.83000
C          5.92400        8.54200       -5.96400
H          5.21700        9.21200       -5.47400
H          5.65800        8.44800       -7.01700
H          5.88000        7.55900       -5.49800
C          9.23900        9.02300       -1.34300
O         10.32600        8.70500       -1.81600
N          9.12600       10.02100       -0.46400
H          8.22500       10.16200       -0.02400
C         10.22900       10.83000        0.08000
H         10.78300       11.29900       -0.73500
C          9.60300       11.91700        0.97000
H         10.39400       12.48800        1.45800
H          9.03000       12.60300        0.34400
C          8.67600       11.34200        2.01700
N          7.39000       10.85000        1.76300
C          6.99900       10.25500        2.90000
H          6.05400        9.74400        3.03300
N          7.95800       10.34700        3.83600
H          7.91900        9.92300        4.75200
C          9.02800       11.02400        3.29500
H          9.99200       11.20100        3.75400
C         11.23900       10.00400        0.89300
O         12.39300       10.39700        1.02100
N         10.81300        8.86000        1.43100
H          9.83000        8.63400        1.33900
C         11.65100        7.86000        2.10200
H         12.44200        8.36900        2.65400
C         10.76500        7.09900        3.09900
H         11.35500        6.33500        3.60800
H         10.40700        7.79800        3.85600
C          9.56600        6.45300        2.44900
N          8.36700        7.10400        2.14600
C          7.60500        6.19100        1.52500
H          6.59600        6.36600        1.17500
N          8.26800        5.03000        1.39900
H          7.90800        4.20100        0.94600
C          9.51100        5.17700        1.97300
H         10.30900        4.44600        2.01900
C         12.35700        6.88800        1.13400
O         13.00300        5.94400        1.57400
N         12.23900        7.05500       -0.17700
H         12.71200        6.41000       -0.78600
H         11.69500        7.82000       -0.55300
