66
0 1
H          9.39600        6.71800        2.11500
C          8.40500        6.79100        1.67300
H          7.72400        7.27100        2.37500
H          8.03300        5.79900        1.42700
C          8.46600        7.60800        0.40800
O          7.63600        8.49000        0.21500
N          9.43100        7.30300       -0.46100
H         10.05500        6.55200       -0.21000
C          9.65700        8.01900       -1.73400
H          8.91100        8.80800       -1.83900
C         11.03700        8.69700       -1.70500
H         11.81000        7.94200       -1.55000
H         11.21700        9.18200       -2.66500
C         11.14200        9.76000       -0.60500
H         10.37200       10.51400       -0.77500
H         10.96000        9.29800        0.36500
S         12.75400       10.58400       -0.54500
C         12.43400       11.77900        0.77900
H         11.61300       12.43600        0.49000
H         12.17200       11.25000        1.69600
H         13.32900       12.37700        0.95100
C          9.51200        7.14200       -2.99200
O          9.45300        7.66000       -4.10400
N          9.41500        5.81900       -2.84100
H          9.33900        5.45500       -1.90200
C          9.28900        4.84900       -3.94300
H         10.04000        5.08300       -4.69900
C          9.59000        3.44300       -3.40200
H          9.30600        2.69600       -4.14600
H         10.66900        3.36000       -3.26900
C          8.94900        3.10400       -2.09000
C          7.75000        2.50400       -1.92600
H          7.11000        2.17400       -2.73700
N          7.47000        2.39100       -0.57700
H          6.62400        1.97200       -0.21900
C          8.47800        2.92200        0.19900
C          8.66500        3.04200        1.58400
H          7.91900        2.66700        2.26900
C          9.83800        3.64800        2.06600
H         10.00200        3.73800        3.13200
C         10.80200        4.13200        1.16200
H         11.71000        4.58200        1.54100
C         10.60500        4.00500       -0.22700
H         11.36800        4.34600       -0.91200
C          9.44000        3.39300       -0.74300
C          7.93500        4.89700       -4.67700
O          7.75800        4.21500       -5.68100
N          6.99100        5.72200       -4.21600
H          7.18800        6.19900       -3.34900
C          5.73300        6.02200       -4.91400
H          5.27600        5.07600       -5.21200
C          4.75200        6.76100       -3.97900
H          5.07300        7.79700       -3.86300
H          3.77900        6.77700       -4.47300
C          4.56500        6.13200       -2.58600
H          3.59000        6.42800       -2.19900
H          4.59000        5.04400       -2.65600
C          5.62700        6.61300       -1.60200
O          6.65500        6.00000       -1.34500
O          5.40600        7.84100       -1.09000
H          6.18000        8.09000       -0.55000
C          5.93200        6.85300       -6.20100
O          5.00900        6.98700       -6.99500
N          7.09900        7.44800       -6.42700
H          7.20700        7.97800       -7.27400
H          7.85600        7.35800       -5.76400
