62
0 1
H          4.63200        9.07100       -1.24500
C          3.87700        9.39300       -0.53100
H          3.50100        8.53700        0.02600
H          3.05500        9.87500       -1.06000
C          4.48800       10.38500        0.43000
O          4.03900       11.52000        0.51200
N          5.51500        9.95300        1.15900
H          5.84900        9.01100        1.02000
C          6.27100       10.78300        2.10500
H          6.39000       11.77500        1.66600
C          5.49800       10.90900        3.43700
H          4.49900       10.48500        3.32700
H          6.00200       10.34800        4.22500
C          5.32600       12.37300        3.86400
H          4.83800       12.90800        3.04800
H          4.65300       12.40400        4.72100
S          6.84300       13.27200        4.30600
C          7.25700       12.47500        5.88200
H          8.18100       12.90200        6.27400
H          6.45300       12.64100        6.59900
H          7.39500       11.40500        5.73700
C          7.67400       10.19700        2.32900
O          7.92000        9.02900        2.02400
N          8.59500       10.99900        2.86800
H          8.31100       11.92900        3.14100
C          9.94200       10.55900        3.23700
H         10.39400       10.09600        2.35900
C         10.77500       11.79500        3.62700
H         10.81200       12.47600        2.77500
H         10.26000       12.30800        4.44200
C         12.21400       11.49300        4.08800
H         12.19300       10.82300        4.94700
C         13.05700       10.85400        2.98100
H         14.07900       10.71500        3.33300
H         12.65900        9.87600        2.71400
H         13.06700       11.49400        2.09900
C         12.89800       12.79200        4.51400
H         12.95300       13.48300        3.67200
H         12.33500       13.25500        5.32400
H         13.90600       12.57800        4.87000
C          9.89400        9.51000        4.36400
O          9.25700        9.72500        5.39400
N         10.60000        8.39400        4.18100
H         11.10700        8.27300        3.31600
C         10.67800        7.29200        5.14300
H         10.64600        7.71100        6.14900
C          9.45100        6.38000        4.95100
H          8.54600        6.98100        5.03900
H          9.47200        5.96200        3.94300
C          9.36000        5.22100        5.95300
H          8.40300        4.72000        5.80600
H         10.14200        4.49800        5.72200
S          9.50500        5.67100        7.70900
C          8.10400        6.81000        7.89000
H          8.26400        7.69700        7.27500
H          7.18400        6.31400        7.58200
H          8.01700        7.11400        8.93300
C         12.00600        6.53400        4.99300
O         12.60300        6.51600        3.92200
N         12.49600        5.90300        6.05200
H         11.98500        5.90500        6.92100
H         13.36800        5.41000        5.95200
