58
0 1
H          8.36800       -7.40000       -4.79800
C          9.44500       -7.35100       -4.65200
H          9.92800       -7.03300       -5.57400
H          9.83000       -8.32800       -4.36300
C          9.76600       -6.35800       -3.56100
O         10.53500       -5.42600       -3.78300
N          9.18000       -6.55600       -2.38000
H          8.59700       -7.37100       -2.27600
C          9.48800       -5.78200       -1.17200
H          9.84900       -4.79500       -1.46500
C          8.20600       -5.57600       -0.34800
H          7.48600       -5.03200       -0.96000
H          7.77700       -6.54500       -0.08900
C          8.46400       -4.78900        0.94500
H          9.12300       -5.37600        1.58600
H          8.97600       -3.85700        0.70200
S          6.97600       -4.39400        1.90600
C          6.21600       -3.12100        0.86200
H          5.32200       -2.73900        1.35400
H          6.92000       -2.30200        0.71100
H          5.93700       -3.54600       -0.10200
C         10.59200       -6.47300       -0.36000
O         10.36900       -7.53900        0.21300
N         11.77100       -5.85400       -0.29900
H         11.87800       -4.98600       -0.80300
C         12.93200       -6.32700        0.46100
H         12.85300       -7.40800        0.59300
C         14.23300       -6.04300       -0.31600
H         14.27900       -4.98300       -0.57600
H         15.07800       -6.25600        0.34000
C         14.40900       -6.90100       -1.58800
H         15.37600       -6.66100       -2.03100
H         14.41400       -7.95500       -1.30900
C         13.33900       -6.68500       -2.65800
O         12.68100       -7.58000       -3.16700
O         13.07900       -5.39500       -2.96000
H         12.27400       -5.40500       -3.50900
C         12.96400       -5.69200        1.86300
O         12.50100       -4.57000        2.05800
N         13.51200       -6.41200        2.84300
H         13.87400       -7.33200        2.61900
C         13.45700       -6.06800        4.26800
H         13.53800       -4.98400        4.36700
C         12.09900       -6.50400        4.86900
H         12.10300       -6.25000        5.93000
H         11.30500       -5.91700        4.40600
C         11.75400       -8.00400        4.73900
H         12.58500       -8.61600        5.08800
H         10.88800       -8.21500        5.36600
C         11.40100       -8.40000        3.30700
O         12.14500       -9.01800        2.55800
O         10.23200       -7.90600        2.85700
H         10.21700       -8.05400        1.89500
C         14.63600       -6.69300        5.03100
O         15.20500       -7.69400        4.61300
N         15.01200       -6.13000        6.17200
H         14.54500       -5.30700        6.51400
H         15.78300       -6.54400        6.67000
