59
0 1
H         14.72600        9.33900       -6.03400
C         13.97200        9.92800       -5.51300
H         13.33900       10.43000       -6.24300
H         14.46100       10.66300       -4.87600
C         13.12700        9.00900       -4.66600
O         13.35200        7.80200       -4.65500
N         12.15200        9.57800       -3.95800
H         12.03200       10.57600       -4.03300
C         11.17800        8.83400       -3.14900
H         11.70800        8.05400       -2.59900
C         10.54600        9.78000       -2.11400
H         11.33900       10.23800       -1.52100
H         10.00200       10.57200       -2.63000
C          9.59600        9.04200       -1.16200
H          8.78900        8.58100       -1.73300
H         10.15600        8.24700       -0.66800
S          8.85600       10.08500        0.12500
C          7.68200       11.04900       -0.86600
H          7.00600       10.37400       -1.39300
H          7.10200       11.69700       -0.20900
H          8.21900       11.66100       -1.58900
C         10.13100        8.15500       -4.05000
O          9.10700        8.74300       -4.38700
N         10.42400        6.92500       -4.47500
H         11.32100        6.55600       -4.17800
C          9.64300        6.14500       -5.45400
H          8.61100        6.50100       -5.44900
C         10.21900        6.36500       -6.86800
H         11.25300        6.01600       -6.89300
H          9.64300        5.77400       -7.58100
C         10.17700        7.82700       -7.32800
H          9.14800        8.18400       -7.25900
H         10.79600        8.43100       -6.66500
S         10.76500        8.08100       -9.02200
C         10.45800        9.86000       -9.18000
H         10.76400       10.19300      -10.17200
H          9.39500       10.06100       -9.04400
H         11.03000       10.39900       -8.42500
C          9.58700        4.63600       -5.13500
O          9.01000        3.85900       -5.89000
N         10.19900        4.20000       -4.03000
H         10.60900        4.89900       -3.42300
C         10.45700        2.79700       -3.67600
H         10.69100        2.26200       -4.59800
C         11.70300        2.70700       -2.76200
H         11.50800        3.22600       -1.82200
H         11.87200        1.65500       -2.52700
C         13.00900        3.24400       -3.38900
H         13.85100        2.90200       -2.78700
H         13.12600        2.82500       -4.38800
C         13.09700        4.76900       -3.47200
O         12.37300        5.55300       -2.86700
O         14.01500        5.23400       -4.34000
H         13.89900        6.20100       -4.38900
C          9.22400        2.08100       -3.07600
O          9.31300        1.38800       -2.07000
N          8.04400        2.25700       -3.65500
H          7.24000        1.79900       -3.26000
H          7.98600        2.80300       -4.50400
