64
0 1
H          3.46900       13.02100       -0.71200
C          3.44200       14.08700       -0.93800
H          2.55600       14.53100       -0.48500
H          3.41400       14.23900       -2.01500
C          4.67100       14.74900       -0.36500
O          4.56000       15.59500        0.51100
N          5.84400       14.34700       -0.85300
H          5.80900       13.61800       -1.54800
C          7.19200       14.76700       -0.41700
H          7.89300       14.21600       -1.04400
C          7.40600       16.26100       -0.73100
H          7.00500       16.48500       -1.72000
H          6.85900       16.86100       -0.00300
C          8.88200       16.68200       -0.69400
H          8.93400       17.76500       -0.81000
H          9.29500       16.44100        0.28500
S          9.94000       15.92600       -1.96500
C          9.35500       16.78200       -3.45300
H          8.31000       16.53800       -3.63800
H          9.46200       17.85900       -3.32300
H          9.95200       16.46400       -4.30900
C          7.58300       14.40100        1.03200
O          8.75100       14.12700        1.29200
N          6.62900       14.30500        1.96400
H          5.69400       14.59300        1.69800
C          6.85600       13.94800        3.37400
H          7.54600       14.67600        3.80200
C          5.52100       14.05100        4.13400
H          5.71000       13.87500        5.19400
H          5.14600       15.07200        4.04400
C          4.44500       13.08200        3.66800
C          3.42800       13.52100        2.79900
H          3.38600       14.55700        2.49100
C          2.45400       12.61500        2.33500
H          1.67000       12.94300        1.67100
C          2.48900       11.26800        2.74900
O          1.54900       10.40000        2.29500
H          1.61700        9.54400        2.71900
C          3.49500       10.83000        3.63700
H          3.52100        9.80200        3.96400
C          4.46600       11.73900        4.09900
H          5.23400       11.40400        4.78500
C          7.48900       12.55800        3.59300
O          7.98900       12.28200        4.67900
N          7.47500       11.68000        2.58400
H          7.04200       11.96700        1.71900
C          8.14600       10.37400        2.60800
H          8.01600        9.95200        3.60600
C          7.45800        9.42000        1.61200
H          7.81200        8.40900        1.82000
H          6.38000        9.43000        1.78200
C          7.74000        9.71500        0.13000
H          8.81700        9.79300       -0.01800
H          7.39700        8.85900       -0.45300
S          6.94300       11.19700       -0.55300
C          7.86400       11.32700       -2.10900
H          7.49900       12.17900       -2.68200
H          8.92400       11.46700       -1.89500
H          7.73000       10.41600       -2.69200
C          9.66800       10.44900        2.36700
O         10.34400        9.42700        2.39000
N         10.23900       11.61700        2.09800
H          9.68200       12.46000        2.04500
H         11.23300       11.64200        1.95200
