57
0 1
H          0.55500        3.11800      -19.33700
C          1.40500        2.47300      -19.55100
H          2.31500        3.06800      -19.61000
H          1.24400        1.95300      -20.49400
C          1.54800        1.45400      -18.44600
O          1.45400        0.25900      -18.69300
N          1.78400        1.93000      -17.22700
H          1.86100        2.93000      -17.10400
C          1.98900        1.11000      -16.02800
H          1.32700        0.24700      -16.09600
C          3.44600        0.59900      -15.97900
H          3.51100       -0.15500      -15.19500
H          3.68500        0.09700      -16.91600
C          4.52200        1.66100      -15.67900
H          4.28300        2.14600      -14.73200
H          5.46900        1.14000      -15.53500
S          4.79700        2.95800      -16.92500
C          5.39200        1.96800      -18.32300
H          6.26400        1.39000      -18.01900
H          4.60600        1.29300      -18.66300
H          5.66900        2.63100      -19.14300
C          1.64000        1.90300      -14.75400
O          1.62400        3.13600      -14.79600
N          1.40500        1.24000      -13.60300
C          1.15000       -0.18200      -13.44000
H          2.09700       -0.71900      -13.36900
H          0.54200       -0.58400      -14.25000
C          0.39400       -0.29300      -12.11800
H          0.52200       -1.27300      -11.65900
H         -0.66300       -0.07600      -12.28000
C          1.02600        0.81700      -11.27800
H          1.93700        0.43500      -10.81400
H          0.34000        1.18000      -10.51200
C          1.35500        1.91100      -12.30600
H          0.54800        2.64500      -12.31900
C          2.69300        2.60900      -12.01600
O          3.72700        1.95300      -11.89400
N          2.68300        3.94100      -11.95500
H          1.80700        4.42000      -12.08500
C          3.88700        4.75100      -11.75500
H          4.72700        4.21900      -12.20500
C          3.72600        6.08500      -12.50200
H          3.48600        5.87800      -13.54600
H          2.89100        6.63800      -12.07000
C          4.97800        6.97100      -12.45000
H          4.79700        7.85200      -13.06800
H          5.11600        7.31700      -11.42600
S          6.53000        6.19800      -12.99900
C          6.12500        5.78200      -14.71900
H          5.81700        6.68100      -15.25300
H          7.00300        5.35900      -15.20600
H          5.32000        5.04800      -14.74500
C          4.20600        4.94400      -10.26500
O          3.31900        5.17700       -9.45100
N          5.47600        4.89000       -9.88600
H          5.68800        5.01800       -8.91100
H          6.19800        4.71800      -10.56700
