67
0 1
H         16.46400       -0.08900       -1.21900
C         15.90800       -0.53300       -2.04300
H         16.24000       -1.55900       -2.19800
H         16.06600        0.04400       -2.95200
C         14.43600       -0.54100       -1.70600
O         13.82400       -1.60000       -1.64300
N         13.86800        0.64300       -1.48700
H         14.43000        1.47700       -1.58000
C         12.44800        0.84000       -1.18100
H         11.87400        0.10700       -1.75000
C         12.21300        0.58700        0.32200
H         12.60000       -0.39900        0.57800
H         12.77500        1.32300        0.90000
C         10.74200        0.64900        0.75900
H         10.68000        0.30800        1.79300
H         10.41700        1.68900        0.74700
S          9.56900       -0.32400       -0.23500
C         10.24300       -1.99500       -0.01900
H         10.30100       -2.23400        1.04300
H          9.59100       -2.71500       -0.51400
H         11.23800       -2.05600       -0.46100
C         11.98400        2.23800       -1.61900
O         12.79900        3.15100       -1.75400
N         10.68100        2.41100       -1.85400
H         10.05900        1.63600       -1.67100
C         10.08300        3.72000       -2.13100
H         10.67600        4.21100       -2.90300
C          8.65900        3.53300       -2.67500
H          8.70900        2.96900       -3.60800
H          8.08900        2.93600       -1.96000
C          7.89900        4.80300       -2.91800
C          7.85900        5.48400       -4.08500
H          8.35200        5.17500       -4.99900
N          7.11800        6.64000       -3.92500
H          6.97400        7.31600       -4.66100
C          6.64400        6.76600       -2.63700
C          5.87300        7.74500       -1.99200
H          5.52500        8.61000       -2.53600
C          5.55600        7.57900       -0.63300
H          4.95300        8.31800       -0.12200
C          6.02300        6.44900        0.06200
H          5.77700        6.32100        1.10800
C          6.79800        5.47400       -0.59700
H          7.15300        4.61000       -0.05100
C          7.12500        5.60300       -1.96500
C         10.09300        4.63500       -0.89400
O          9.92400        4.17400        0.23400
N         10.22000        5.94400       -1.12000
H         10.31700        6.26000       -2.07400
C         10.05700        6.98700       -0.10700
H          9.34700        6.63800        0.64500
C         11.40900        7.24000        0.58200
H         11.74400        6.31400        1.05100
H         12.14300        7.52900       -0.17100
C         11.34000        8.33200        1.65800
H         11.11200        9.28800        1.18700
H         10.52600        8.08600        2.34100
S         12.84600        8.53200        2.64900
C         14.00100        9.15500        1.39700
H         14.16300        8.39600        0.63100
H         13.59500       10.05700        0.93900
H         14.95400        9.39000        1.87100
C          9.48000        8.25600       -0.75200
O          9.83700        8.61300       -1.87000
N          8.59800        8.96600       -0.06400
H          8.20600        9.78400       -0.50000
H          8.27700        8.64300        0.83400
