61
0 1
H          5.33300        7.14100       -5.85400
C          5.46800        7.81300       -6.70000
H          4.69700        7.61900       -7.44500
H          6.45100        7.65500       -7.14300
C          5.35300        9.24100       -6.22700
O          4.48400        9.97300       -6.68800
N          6.25700        9.64500       -5.33600
H          6.96000        8.97600       -5.05800
C          6.33700       10.97400       -4.70000
H          5.32700       11.24400       -4.38900
C          7.18700       10.87400       -3.41600
H          7.13400       11.83200       -2.89700
H          6.74800       10.12800       -2.75300
C          8.67100       10.53900       -3.65000
H          9.06700       11.20600       -4.41600
H          9.21400       10.75500       -2.72900
S          9.05600        8.82600       -4.12700
C          8.74500        7.96000       -2.56400
H          7.69700        8.05800       -2.28400
H          8.98600        6.90300       -2.68200
H          9.37300        8.38400       -1.78000
C          6.81400       12.11300       -5.63400
O          7.39100       13.10200       -5.18600
N          6.59900       11.98200       -6.94600
H          6.02600       11.20000       -7.23200
C          7.11000       12.88000       -7.99200
H          8.16500       13.07100       -7.79100
C          6.99400       12.17000       -9.35800
H          5.93500       12.06500       -9.59900
H          7.44300       12.81200      -10.11800
C          7.65300       10.77900       -9.44700
H          7.17200       10.10100       -8.74100
C          7.46000       10.20800      -10.85100
H          7.94600       10.85000      -11.58700
H          7.89100        9.20800      -10.90700
H          6.39600       10.14300      -11.08000
C          9.15200       10.81700       -9.14600
H          9.64900       11.52300       -9.81300
H          9.31900       11.11900       -8.11200
H          9.58300        9.82600       -9.28600
C          6.43400       14.26900       -8.03500
O          6.76400       15.08700       -8.88700
N          5.47800       14.53800       -7.14300
H          5.29400       13.83900       -6.43400
C          4.67500       15.76800       -7.10700
H          4.50000       16.08800       -8.13500
C          3.30000       15.48900       -6.45800
H          3.42700       15.33800       -5.38500
H          2.68400       16.38000       -6.59000
C          2.53000       14.29200       -7.05800
H          1.48500       14.35800       -6.75600
H          2.56800       14.34500       -8.14600
C          3.05700       12.93300       -6.59600
O          3.77900       12.75600       -5.62300
O          2.72700       11.89300       -7.38500
H          3.22400       11.12700       -7.04600
C          5.38400       16.94100       -6.39700
O          4.85100       18.04300       -6.33800
N          6.56700       16.74100       -5.82800
H          7.01600       17.51800       -5.37400
H          6.99800       15.83100       -5.86900
