60
0 1
H          5.97900        7.58700        0.12400
C          6.87400        8.19900        0.03100
H          7.18900        8.54400        1.01400
H          6.67000        9.05500       -0.61100
C          7.98000        7.37700       -0.58400
O          8.55800        7.77000       -1.58900
N          8.27200        6.22200        0.01100
H          7.76600        5.98000        0.85100
C          9.38600        5.34600       -0.39200
H         10.31300        5.91600       -0.31500
C          9.48300        4.13800        0.55800
H          8.60200        3.50700        0.44100
H         10.35400        3.55100        0.26200
C          9.65600        4.51400        2.03900
H         10.06700        3.65000        2.56100
H         10.39300        5.31500        2.10700
S          8.15500        5.03100        2.93000
C          7.26300        3.45600        3.04800
H          6.34700        3.60300        3.62200
H          7.00400        3.09700        2.05200
H          7.88600        2.71800        3.55200
C          9.29100        4.84600       -1.84400
O         10.30900        4.52800       -2.44900
N          8.08600        4.81000       -2.42000
H          7.29300        5.13500       -1.88200
C          7.82200        4.47600       -3.82700
H          8.37500        3.57600       -4.09600
C          6.31600        4.20400       -3.96400
H          6.10000        3.88200       -4.98400
H          6.03300        3.39400       -3.29100
C          5.47900        5.41800       -3.64200
N          5.24500        5.92100       -2.35800
C          4.57200        7.06800       -2.53800
H          4.25000        7.72400       -1.73900
N          4.39200        7.31200       -3.84600
H          3.99500        8.15900       -4.23200
C          4.96400        6.28400       -4.56000
H          5.05300        6.20000       -5.63500
C          8.24300        5.57400       -4.82300
O          8.19100        5.34500       -6.02700
N          8.62200        6.76300       -4.34200
H          8.58700        6.89800       -3.33800
C          8.97200        7.93500       -5.16000
H          9.31100        7.57900       -6.13300
C          7.71500        8.79400       -5.39700
H          7.96400        9.59200       -6.09600
H          6.94600        8.17500       -5.86100
C          7.14300        9.41000       -4.11100
H          6.90400        8.60200       -3.42000
H          7.90400       10.03500       -3.64200
S          5.63800       10.40200       -4.33600
C          6.33100       11.84700       -5.18600
H          5.54800       12.59000       -5.33700
H          7.12700       12.28200       -4.58100
H          6.73400       11.55200       -6.15400
C         10.14500        8.75100       -4.58100
O         10.37100        9.89200       -4.96900
N         10.91200        8.20200       -3.64800
H         10.71900        7.26800       -3.32400
H         11.66500        8.74900       -3.26600
