60
0 1
H         11.85400        6.71300        9.49400
C         11.77600        7.59100        8.85500
H         12.63500        8.24000        9.01100
H         10.86200        8.13500        9.09000
C         11.73100        7.15800        7.40900
O         10.74700        7.39500        6.72100
N         12.79500        6.50300        6.94700
H         13.56900        6.36500        7.58200
C         13.01900        6.16900        5.53000
H         12.98900        7.09800        4.95800
C         14.41500        5.54400        5.34900
H         14.45100        4.57300        5.84300
H         14.57300        5.37900        4.28200
C         15.56800        6.42500        5.85700
H         16.48600        6.09700        5.36700
H         15.38200        7.45300        5.54200
S         15.87100        6.41500        7.65100
C         16.57500        4.75700        7.87200
H         17.45900        4.64700        7.24400
H         16.85900        4.62200        8.91600
H         15.84000        3.99900        7.60300
C         11.96000        5.24100        4.90300
O         11.87900        5.15500        3.68200
N         11.14200        4.56000        5.71100
H         11.24300        4.69700        6.70700
C          9.99700        3.76000        5.25200
H         10.29600        3.22900        4.34600
C          9.64600        2.70700        6.32200
H          8.98300        1.97200        5.86300
H         10.55200        2.18300        6.62900
C          8.93400        3.26100        7.56800
H          8.03500        3.79100        7.25400
H          8.60800        2.41700        8.17600
S          9.92500        4.35300        8.62900
C          8.66200        5.57500        9.08000
H          9.08300        6.29400        9.78200
H          8.32500        6.10600        8.18900
H          7.81200        5.07500        9.54600
C          8.75800        4.60100        4.88400
O          7.80900        4.05400        4.32900
N          8.74500        5.89800        5.22600
H          9.58300        6.25900        5.66800
C          7.62600        6.85300        5.14400
H          8.00000        7.78300        5.57400
C          7.29400        7.15800        3.67100
H          8.21400        7.39600        3.13700
H          6.86200        6.27000        3.20800
C          6.30200        8.31600        3.50000
H          6.06900        8.41000        2.44000
H          5.37600        8.06300        4.01600
S          6.85700        9.94000        4.10000
C          8.25200       10.27000        2.98900
H          8.63800       11.27000        3.18400
H          9.04500        9.54300        3.16300
H          7.91900       10.20800        1.95300
C          6.38900        6.48700        5.98800
O          5.97400        7.25200        6.84900
N          5.79500        5.31700        5.80700
H          6.17100        4.67400        5.12100
H          4.99000        5.09200        6.36600
