61
0 1
H         11.74000        8.80700        0.57000
C         11.37800        7.95300        0.00000
H         11.49500        7.04100        0.58400
H         11.94600        7.86500       -0.92500
C          9.91900        8.14800       -0.33300
O          9.55900        8.19100       -1.50500
N          9.08900        8.29500        0.70100
H          9.49600        8.25500        1.62100
C          7.61500        8.35900        0.62700
H          7.29900        7.58100       -0.06700
C          6.99600        8.01600        1.99700
H          7.21100        8.82300        2.69800
H          5.91300        7.94800        1.88800
C          7.50000        6.69700        2.60500
H          8.53600        6.83100        2.91500
H          6.91800        6.49400        3.50400
S          7.42600        5.22900        1.53600
C          5.64500        5.12000        1.21200
H          5.10200        5.06400        2.15500
H          5.31600        5.99500        0.65000
H          5.44000        4.22500        0.62500
C          7.04300        9.68300        0.06300
O          5.94300       10.10100        0.42000
N          7.78600       10.36700       -0.81300
H          8.63700        9.91900       -1.12700
C          7.44600       11.67600       -1.39300
H          7.21900       12.35700       -0.57200
C          8.71400       12.17500       -2.12100
H          9.54100       12.15400       -1.41000
H          8.94600       11.46900       -2.92000
C          8.65600       13.58800       -2.73800
H          7.91300       13.61800       -3.53300
C          8.33600       14.66700       -1.70100
H          7.32400       14.52400       -1.32000
H          9.04700       14.62400       -0.87700
H          8.38100       15.65000       -2.16900
C         10.01400       13.92100       -3.35700
H          9.96900       14.90100       -3.83300
H         10.78900       13.93000       -2.59000
H         10.26400       13.17900       -4.11600
C          6.19900       11.65500       -2.31000
O          5.69400       12.70200       -2.70000
N          5.69500       10.46900       -2.65600
H          6.10200        9.65100       -2.22100
C          4.58000       10.25400       -3.58600
H          4.68100       10.97100       -4.40300
C          4.65200        8.83100       -4.18800
H          4.30500        8.10700       -3.45000
H          3.95700        8.79200       -5.02800
C          6.04400        8.40000       -4.70400
H          5.92700        7.53200       -5.35200
H          6.47700        9.20600       -5.29700
C          7.01200        8.01400       -3.58400
O          6.68000        7.76900       -2.43200
O          8.31700        8.03900       -3.91400
H          8.80600        7.90200       -3.08400
C          3.19500       10.50000       -2.95000
O          2.17900       10.41400       -3.62800
N          3.11000       10.77800       -1.65300
H          2.20000       10.94200       -1.25800
H          3.94800       10.83900       -1.09400
