60
0 1
H          8.30600       12.02700        0.09200
C          7.32800       12.17500        0.54800
H          6.67200       12.68800       -0.15400
H          7.42400       12.76600        1.45600
C          6.72900       10.83200        0.89300
O          6.40100       10.57900        2.04600
N          6.59900        9.95900       -0.10400
H          6.96500       10.21500       -1.01000
C          5.95900        8.64000        0.02600
H          4.93600        8.79900        0.37000
C          5.88900        7.95700       -1.35400
H          5.30400        7.04200       -1.24400
H          5.35700        8.60400       -2.05200
C          7.24900        7.57600       -1.96100
H          7.82800        7.02400       -1.22100
H          7.07200        6.90100       -2.79900
S          8.24200        8.96600       -2.57900
C          9.90900        8.30300       -2.32400
H         10.64400        9.02800       -2.67400
H         10.07100        8.11700       -1.26200
H         10.02500        7.37300       -2.88000
C          6.62900        7.72000        1.06200
O          5.96400        6.85500        1.62600
N          7.91700        7.92100        1.36000
H          8.41000        8.66800        0.88100
C          8.64100        7.17500        2.39700
H          8.46400        6.11300        2.21800
C         10.15900        7.41700        2.26200
H         10.66600        6.62300        2.81200
H         10.44900        7.31600        1.21500
C         10.68300        8.75900        2.81200
H         10.43400        8.84100        3.87000
H         11.77100        8.76000        2.73900
C         10.17200        9.99400        2.07500
O          9.83800        9.97100        0.90100
N         10.07700       11.12400        2.73700
H         10.26500       11.15200        3.72700
H          9.73600       11.91900        2.23100
C          8.14200        7.46000        3.82700
O          8.49000        6.71900        4.74100
N          7.33800        8.51100        4.03600
H          7.08600        9.09900        3.24900
C          6.70500        8.80100        5.33100
H          7.41700        8.55900        6.12100
C          6.36800       10.29900        5.44500
H          5.55400       10.53300        4.75700
H          6.01300       10.50100        6.45600
C          7.54000       11.24600        5.14300
H          7.73700       11.21100        4.07400
H          7.22100       12.26200        5.37500
S          9.11100       10.93100        6.00300
C          8.59400       11.12300        7.73100
H          9.46200       11.01400        8.38200
H          8.15500       12.10900        7.87700
H          7.86200       10.35600        7.98600
C          5.45000        7.94800        5.60200
O          4.85400        8.04900        6.66900
N          5.00200        7.11800        4.66600
H          4.18600        6.56600        4.86900
H          5.48300        7.03500        3.78200
