67
0 1
H          9.34900        6.01200       -2.59800
C          9.90300        6.72400       -1.99000
H         10.76600        7.08700       -2.54700
H         10.23500        6.24900       -1.06900
C          9.01200        7.89400       -1.65000
O          9.37000        9.03500       -1.91200
N          7.84900        7.60800       -1.06600
H          7.62000        6.63200       -0.92900
C          6.82600        8.61300       -0.71300
H          7.26400        9.60800       -0.79600
C          5.65300        8.54000       -1.70900
H          5.18700        7.55500       -1.64500
H          4.91100        9.28800       -1.43300
C          6.07800        8.79700       -3.16200
H          6.56000        9.77300       -3.22400
H          6.81100        8.04300       -3.45100
S          4.73000        8.73200       -4.37500
C          3.80200       10.22900       -3.94400
H          4.46000       11.09600       -3.99300
H          2.98200       10.36000       -4.65200
H          3.39100       10.13700       -2.93900
C          6.33800        8.49400        0.74300
O          5.30100        9.04200        1.10800
N          7.05400        7.73700        1.57800
H          7.91800        7.34700        1.23400
C          6.57300        7.25700        2.88400
H          5.55800        6.88200        2.75000
C          7.45300        6.08100        3.35100
H          8.23200        6.48200        4.00100
H          6.84300        5.41100        3.95900
C          8.13500        5.27500        2.27500
C          9.43100        4.88900        2.30200
H         10.12000        5.10000        3.11300
N          9.74000        4.19800        1.14700
H         10.65100        3.80300        0.96300
C          8.65900        4.12300        0.29700
C          8.49100        3.59200       -0.99000
H          9.31400        3.10600       -1.49200
C          7.23800        3.70000       -1.61600
H          7.08800        3.29300       -2.60700
C          6.17300        4.32600       -0.94500
H          5.20500        4.39600       -1.42600
C          6.35100        4.84700        0.35100
H          5.51900        5.31900        0.85400
C          7.60100        4.76800        1.00600
C          6.48200        8.36100        3.95300
O          5.80000        8.20200        4.95800
N          7.15300        9.48700        3.71100
H          7.71100        9.52000        2.86600
C          7.07200       10.74300        4.46200
H          7.02200       10.52400        5.53000
C          8.35900       11.53100        4.16700
H          8.32000       12.49600        4.67300
H          9.20700       10.98000        4.57500
C          8.60600       11.74800        2.69100
N          9.04000       10.76700        1.79200
C          9.11700       11.37100        0.59700
H          9.44700       10.89000       -0.31600
N          8.73300       12.65500        0.69500
H          8.70600       13.31500       -0.06900
C          8.40300       12.91100        2.00900
H          8.04600       13.84100        2.43000
C          5.83100       11.59300        4.12600
O          5.63600       12.65100        4.71000
N          4.98800       11.19100        3.18200
H          5.15500       10.33200        2.67600
H          4.18300       11.76000        2.98700
