60
0 1
H         11.11600        4.22400       -3.49000
C         12.05200        4.28200       -4.04400
H         12.88700        4.03900       -3.39000
H         12.18400        5.28800       -4.43800
C         12.01000        3.30300       -5.19300
O         11.99000        3.70700       -6.34900
N         11.98500        2.00800       -4.87800
H         11.97000        1.76700       -3.90100
C         12.15400        0.92200       -5.85900
H         13.08200        1.11000       -6.40100
C         12.29600       -0.43000       -5.13800
H         11.38000       -0.63900       -4.58300
H         12.42300       -1.21700       -5.88100
C         13.48600       -0.48100       -4.16700
H         13.28400        0.19200       -3.33300
H         13.55200       -1.49000       -3.76000
S         15.10700       -0.03800       -4.85900
C         15.32900       -1.34700       -6.09500
H         14.56500       -1.26200       -6.86800
H         16.31200       -1.24500       -6.55500
H         15.25700       -2.32300       -5.61500
C         11.06200        0.83200       -6.93900
O         11.28700        0.19400       -7.96600
N          9.91700        1.50500       -6.77500
H          9.79700        2.05100       -5.92800
C          8.90000        1.64900       -7.83000
H          8.67700        0.64600       -8.19700
C          7.58800        2.21600       -7.24400
H          6.77900        1.96600       -7.93300
H          7.37300        1.71200       -6.30000
C          7.55000        3.74100       -7.02400
H          7.59600        4.24200       -7.99100
H          6.60100        4.00900       -6.56100
C          8.67700        4.24800       -6.13300
O          9.00100        3.67000       -5.10700
N          9.35500        5.30500       -6.51600
H         10.18900        5.51000       -5.99200
H          9.14000        5.76900       -7.37900
C          9.39200        2.45100       -9.05600
O          8.69700        2.50100      -10.06400
N         10.58800        3.05500       -8.99400
H         11.07600        3.05900       -8.10600
C         11.30000        3.60600      -10.15700
H         10.63100        4.29300      -10.67500
C         12.52000        4.40400       -9.66100
H         12.92800        4.98500      -10.49000
H         12.19500        5.10400       -8.88900
C         13.63800        3.51600       -9.09400
H         13.20200        2.80400       -8.39400
H         14.09500        2.95100       -9.90700
S         14.94300        4.42600       -8.22600
C         15.80500        3.03500       -7.44800
H         15.12400        2.51300       -6.77500
H         16.15700        2.34600       -8.21600
H         16.65700        3.40800       -6.88000
C         11.73600        2.54100      -11.18700
O         12.13800        2.88300      -12.29200
N         11.70100        1.25300      -10.86100
H         11.39500        0.96400       -9.94300
H         11.97900        0.58000      -11.55500
