59
0 1
H          8.19200        8.05900       -3.30100
C          7.15600        8.06500       -2.96600
H          6.50100        7.78700       -3.79000
H          6.89200        9.05700       -2.60400
C          6.99400        7.06600       -1.84600
O          7.96700        6.45200       -1.42100
N          5.76000        6.90800       -1.37200
H          5.03500        7.49100       -1.76300
C          5.38000        6.00800       -0.26800
H          6.24200        5.38900       -0.01600
C          5.04000        6.84000        0.98400
H          5.00500        6.16200        1.83800
H          5.84100        7.55500        1.17200
C          3.69100        7.57900        0.92300
H          2.89700        6.84300        0.79200
H          3.52600        8.05500        1.89000
S          3.49500        8.85200       -0.36300
C          4.69000       10.09300        0.20500
H          4.44400       10.39900        1.22200
H          5.69700        9.67800        0.18200
H          4.64600       10.96200       -0.45100
C          4.25000        5.02800       -0.63000
O          3.87100        4.19400        0.18800
N          3.71900        5.09800       -1.85400
H          4.14500        5.73100       -2.52000
C          2.64800        4.23200       -2.37200
H          1.78600        4.28100       -1.70600
C          2.24200        4.76100       -3.75700
H          1.48000        4.10800       -4.18500
H          1.80600        5.75400       -3.64300
C          3.40900        4.86000       -4.70900
N          4.39100        5.85400       -4.67100
C          5.30700        5.49500       -5.58200
H          6.21300        6.04900       -5.79200
N          4.95300        4.34400       -6.18000
H          5.49300        3.86200       -6.88500
C          3.76000        3.92300       -5.63600
H          3.22400        3.00900       -5.85400
C          3.05300        2.75200       -2.46500
O          2.19000        1.88200       -2.47200
N          4.35500        2.46100       -2.50900
H          4.99900        3.24100       -2.58000
C          4.92400        1.11200       -2.41900
H          4.31700        0.46200       -3.05100
C          6.35600        1.11200       -2.99800
H          6.64000        0.06900       -3.15000
H          6.34800        1.58300       -3.98300
C          7.45700        1.76000       -2.12900
H          7.39900        1.39000       -1.10600
H          8.42500        1.45100       -2.52500
C          7.45100        3.28900       -2.10600
O          6.68800        4.00500       -2.74200
O          8.37700        3.83500       -1.29500
H          8.28600        4.80500       -1.36100
C          4.87500        0.49800       -1.00100
O          5.32300       -0.62500       -0.80500
N          4.39000        1.20300        0.01400
H          4.03600        2.13900       -0.12800
H          4.36700        0.77500        0.92400
