63
0 1
H          8.71700        2.87300        1.80100
C          7.69700        3.17000        1.56300
H          7.03100        2.86500        2.36700
H          7.38800        2.70800        0.62800
C          7.64900        4.67200        1.41500
O          8.68500        5.32600        1.41600
N          6.44200        5.21800        1.27700
H          5.64400        4.60500        1.31600
C          6.18800        6.65900        1.13700
H          6.95000        7.07500        0.47400
C          4.82400        6.85700        0.44900
H          4.82500        6.27800       -0.47500
H          4.02900        6.47200        1.08900
C          4.51800        8.32100        0.10200
H          4.34700        8.87000        1.02700
H          5.38400        8.76200       -0.39300
S          3.06300        8.56200       -0.95600
C          3.71200        8.01600       -2.55800
H          2.94800        8.15800       -3.32300
H          4.59200        8.60600       -2.81700
H          3.98000        6.96100       -2.51300
C          6.33100        7.38800        2.48700
O          5.34700        7.82400        3.09000
N          7.56400        7.47100        2.99300
H          8.31400        7.04400        2.46000
C          7.90600        8.04000        4.29900
H          6.98800        8.23900        4.85200
C          8.71700        7.01600        5.10900
H          9.71300        6.95000        4.66900
H          8.83300        7.39100        6.12600
C          8.12400        5.61500        5.18000
C          6.76000        5.42300        5.48600
H          6.11800        6.27300        5.67200
C          6.22300        4.12300        5.53700
H          5.17800        3.96800        5.76400
C          7.05000        3.00700        5.29800
O          6.52500        1.75500        5.34300
H          7.20500        1.08100        5.32900
C          8.41600        3.19400        4.99700
H          9.05200        2.34400        4.80400
C          8.94600        4.49700        4.93400
H          9.98900        4.64100        4.68700
C          8.65800        9.37100        4.15400
O          9.67500        9.45400        3.46800
N          8.15800       10.42300        4.80500
H          7.32700       10.29500        5.36800
C          8.64000       11.80000        4.66100
H          9.72900       11.78200        4.59700
C          8.09300       12.42700        3.35700
H          8.42400       13.46500        3.31800
H          8.54300       11.91800        2.50400
C          6.55800       12.40700        3.19500
H          6.07600       12.73400        4.11700
H          6.28100       13.10600        2.40700
C          6.03500       11.03100        2.78900
O          6.32400       10.45800        1.74800
O          5.25300       10.42700        3.70800
H          5.09000        9.52300        3.38500
C          8.25900       12.64100        5.89100
O          7.30800       12.33500        6.59900
N          8.98000       13.72200        6.15700
H          9.76300       13.97100        5.57600
H          8.72700       14.27100        6.96300
