59
0 1
H         14.32400        4.23200       -1.69700
C         13.89600        4.38400       -0.70700
H         14.49200        5.11200       -0.16000
H         13.88500        3.43800       -0.16800
C         12.48100        4.89200       -0.85100
O         11.98800        5.02400       -1.96600
N         11.83800        5.18200        0.28000
H         12.36000        5.09000        1.13700
C         10.40300        5.50600        0.40700
H          9.85600        4.82000       -0.23900
C          9.94300        5.22800        1.85100
H         10.50300        5.86300        2.53900
H          8.88300        5.46700        1.94800
C         10.12500        3.75900        2.25400
H          9.53900        3.13800        1.57500
H         11.17400        3.48100        2.15600
S          9.60700        3.40300        3.95300
C          9.86800        1.61000        3.98700
H          9.59600        1.22400        4.96900
H          9.24600        1.13500        3.22900
H         10.91700        1.38800        3.79100
C          9.99600        6.92700       -0.05500
O          8.95200        7.44100        0.34500
N         10.79600        7.58800       -0.89900
H         11.62300        7.10600       -1.22500
C         10.58200        8.97600       -1.35400
H         10.45200        9.60100       -0.47000
C         11.82500        9.48000       -2.11400
H         11.99300        8.86000       -2.99500
H         11.62400       10.49400       -2.46000
C         13.10400        9.54800       -1.26500
H         13.81000       10.20000       -1.78000
H         12.86000       10.02500       -0.31500
S         13.96600        7.98600       -0.91800
C         14.48400        7.49700       -2.58700
H         13.61100        7.25700       -3.19400
H         15.04100        8.31000       -3.05300
H         15.12300        6.61600       -2.52500
C          9.32000        9.19300       -2.21900
O          9.04900       10.31600       -2.63200
N          8.55300        8.14100       -2.51600
H          8.79400        7.25400       -2.09100
C          7.33100        8.18900       -3.33000
H          7.48000        8.91900       -4.12700
C          7.06600        6.81500       -3.98700
H          6.67500        6.12300       -3.23900
H          6.28600        6.95200       -4.73800
C          8.28700        6.17400       -4.68300
H          7.94000        5.38400       -5.34800
H          8.79500        6.92400       -5.28900
C          9.28200        5.55100       -3.70300
O          9.03500        5.28500       -2.53300
O         10.52500        5.36500       -4.18400
H         11.06100        5.08200       -3.42100
C          6.09300        8.64500       -2.53100
O          5.03400        8.86900       -3.10500
N          6.17700        8.76800       -1.21000
H          5.36100        9.06900       -0.70500
H          7.04400        8.55900       -0.73600
