59
0 1
H          5.60600        4.85500        0.70300
C          5.41200        5.86600        1.05900
H          6.23300        6.18700        1.69900
H          4.47700        5.88600        1.61500
C          5.31900        6.79600       -0.12600
O          5.54300        6.37600       -1.25700
N          4.99100        8.05900        0.13600
H          4.78800        8.29600        1.09500
C          4.82000        9.11600       -0.87900
H          5.08800        8.71000       -1.85500
C          3.33500        9.52000       -0.94200
H          3.18100       10.09000       -1.86000
H          2.71800        8.62300       -1.01100
C          2.84800       10.39000        0.23200
H          3.40500       11.32800        0.22100
H          1.80300       10.64300        0.05100
S          2.97100        9.68600        1.90600
C          1.75500        8.34400        1.79200
H          2.06500        7.62200        1.03700
H          1.67900        7.84200        2.75700
H          0.78100        8.75400        1.52500
C          5.72200       10.34400       -0.66500
O          5.87700       11.15900       -1.57000
N          6.32600       10.49300        0.51800
H          6.22300        9.75100        1.19400
C          7.14700       11.65000        0.90500
H          6.58100       12.55400        0.67800
C          7.38900       11.62500        2.42600
H          8.00000       12.49100        2.68400
H          6.43500       11.74100        2.94000
C          8.10100       10.36700        2.95500
H          8.97200       10.16800        2.33000
H          8.46900       10.58700        3.95700
S          7.10800        8.84200        3.06000
C          5.93300        9.27700        4.37200
H          6.47700        9.56700        5.27100
H          5.29700       10.10200        4.04900
H          5.30500        8.41400        4.59600
C          8.46900       11.77200        0.12600
O          9.08200       12.83400        0.13200
N          8.89300       10.71600       -0.57200
H          8.36300        9.85700       -0.48400
C         10.00600       10.73100       -1.52700
H         10.81000       11.31900       -1.08300
C         10.54200        9.29500       -1.72600
H         11.51500        9.38200       -2.21200
H         10.71700        8.83600       -0.75100
C          9.68700        8.34300       -2.59300
H          9.42100        8.82500       -3.53200
H         10.29900        7.47600       -2.84300
C          8.41600        7.81700       -1.92700
O          8.06100        8.06200       -0.77900
O          7.65900        7.03500       -2.72100
H          6.88500        6.74600       -2.20100
C          9.66800       11.41000       -2.87400
O         10.52600       11.51600       -3.74000
N          8.43300       11.84200       -3.10800
H          8.24300       12.28200       -3.99200
H          7.70700       11.73600       -2.41300
