64
0 1
H         11.23200       11.32400        1.74100
C         11.66700       10.55600        1.10500
H         12.64400       10.26500        1.48800
H         11.77600       10.94900        0.09400
C         10.76300        9.34800        1.06600
O         10.37300        8.90300       -0.00400
N         10.40000        8.81900        2.23500
H         10.77300        9.22900        3.07600
C          9.59500        7.58700        2.34900
H         10.13700        6.78500        1.84400
C          9.46000        7.19300        3.83000
H          8.96400        6.22300        3.89000
H         10.45800        7.08500        4.25400
C          8.65800        8.20000        4.67000
H          9.12600        9.18300        4.60400
H          7.65300        8.27600        4.25500
S          8.48300        7.77100        6.42300
C         10.18200        7.98700        7.02000
H         10.52000        9.00200        6.81100
H         10.20800        7.81600        8.09700
H         10.84300        7.27100        6.53300
C          8.21400        7.66900        1.66700
O          7.68500        6.65100        1.23700
N          7.66000        8.87500        1.51300
H          8.18300        9.67400        1.83400
C          6.41400        9.15400        0.78400
H          5.65000        8.44500        1.10500
C          5.95400       10.57300        1.16400
H          5.05600       10.82500        0.59800
H          5.68000       10.57900        2.22000
C          7.01100       11.63700        0.92200
C          7.20900       12.14500       -0.37600
H          6.56700       11.82400       -1.18700
C          8.25400       13.05400       -0.62900
H          8.41300       13.42700       -1.62900
C          9.10100       13.46000        0.42300
O         10.13900       14.30100        0.18000
H         10.24300       14.47000       -0.75900
C          8.88100       12.98000        1.73100
H          9.52100       13.32200        2.53000
C          7.83700       12.06900        1.98000
H          7.66800       11.70300        2.98400
C          6.53900        9.01100       -0.74900
O          5.53800        9.11100       -1.45200
N          7.75100        8.79900       -1.27600
H          8.54300        8.77700       -0.64500
C          8.04900        8.64500       -2.70700
H          7.13200        8.34200       -3.21500
C          8.47800        9.99900       -3.30400
H          8.60900        9.87700       -4.37900
H          7.67900       10.72500       -3.15000
C          9.77500       10.55500       -2.69700
H          9.60400       10.73800       -1.63700
H         10.56400        9.80700       -2.78400
S         10.37400       12.10500       -3.42900
C         10.94500       11.49900       -5.04000
H         11.67300       10.70000       -4.89500
H         10.10100       11.11700       -5.61500
H         11.41100       12.31600       -5.59100
C          9.06800        7.51900       -2.98100
O          9.69500        7.47400       -4.03300
N          9.26700        6.59500       -2.04800
H          8.74500        6.62700       -1.18600
H          9.94100        5.87100       -2.23000
