59
0 1
H          7.16800       10.95700       -0.46800
C          7.95900       10.85400        0.27300
H          7.52700       10.81400        1.27100
H          8.63800       11.70100        0.19900
C          8.72500        9.58000        0.00500
O          8.45800        8.89500       -0.97500
N          9.66600        9.25200        0.89100
H          9.78900        9.85800        1.68600
C         10.61400        8.13500        0.72400
H         11.19200        8.32400       -0.18200
C         11.59700        8.12100        1.90700
H         12.37300        7.38000        1.70900
H         12.07700        9.09700        1.97400
C         10.93700        7.78400        3.25400
H         10.13900        8.49800        3.45700
H         10.49000        6.79200        3.18300
S         12.06300        7.76700        4.67600
C         12.45700        9.53000        4.84400
H         12.98900        9.87900        3.95900
H         11.53800       10.10200        4.97100
H         13.09200        9.67300        5.71800
C          9.96400        6.75100        0.53500
O         10.60100        5.85900       -0.01500
N          8.69900        6.57100        0.93100
H          8.22300        7.34900        1.37200
C          7.93400        5.34100        0.69300
H          8.50400        4.51200        1.11600
C          6.58400        5.40400        1.43900
H          6.14300        4.40800        1.37800
H          6.76300        5.60500        2.49700
C          5.53400        6.40000        0.89700
H          5.49700        6.36400       -0.19000
H          4.55600        6.08200        1.25800
C          5.72900        7.84800        1.35000
O          6.68600        8.28700        1.97700
O          4.72900        8.69200        1.02400
H          4.97100        9.53000        1.41900
C          7.73300        5.01000       -0.80000
O          7.43800        3.86500       -1.12400
N          7.89700        5.98800       -1.70000
H          8.12400        6.91800       -1.36800
C          7.81700        5.79600       -3.15700
H          7.16700        4.94300       -3.36100
C          7.15800        7.02800       -3.79700
H          7.82100        7.88700       -3.68700
H          7.01500        6.84300       -4.86200
C          5.81600        7.35800       -3.19200
N          4.67200        6.56500       -3.28400
C          3.72800        7.18800       -2.56700
H          2.72100        6.81700       -2.43100
N          4.21900        8.31600       -2.02700
H          3.71800        8.92900       -1.40000
C          5.53500        8.44200       -2.41300
H          6.23100        9.22200       -2.14300
C          9.17300        5.46200       -3.80800
O          9.28200        5.39200       -5.02600
N         10.23700        5.27000       -3.03700
H         11.11100        5.04500       -3.47900
H         10.15800        5.32700       -2.03100
