58
0 1
H          3.92500        8.24400       -1.97200
C          3.49100        8.36200       -0.98100
H          2.40500        8.34200       -1.05500
H          3.81700        9.30500       -0.54600
C          3.94600        7.22200       -0.10100
O          3.12400        6.47500        0.41600
N          5.25900        7.09800        0.08900
H          5.86100        7.76500       -0.37400
C          5.90500        5.95000        0.74800
H          5.67300        5.05600        0.16700
C          7.43300        6.13400        0.75100
H          7.70000        6.98800        1.37400
H          7.87600        5.24400        1.20100
C          8.04800        6.30200       -0.64800
H          9.11100        6.06600       -0.58100
H          7.59500        5.56600       -1.31400
S          7.89900        7.94500       -1.41500
C          9.05000        8.90800       -0.39600
H         10.04100        8.45500       -0.43400
H          9.10800        9.92600       -0.78200
H          8.70200        8.93800        0.63600
C          5.42100        5.67500        2.18300
O          5.50900        4.53900        2.64300
N          4.86400        6.67000        2.88200
H          4.77500        7.57500        2.43300
C          4.25200        6.49300        4.20700
H          4.98900        5.99300        4.83800
C          3.95900        7.86800        4.84700
H          3.85500        7.70900        5.92100
H          4.81800        8.52600        4.70300
C          2.67900        8.58800        4.37200
H          1.81200        7.94800        4.53500
H          2.53600        9.47800        4.98500
C          2.69900        9.03600        2.91300
O          3.70300        9.18700        2.22700
O          1.48300        9.27600        2.38700
H          1.61100        9.50900        1.46700
C          3.00300        5.58600        4.20000
O          2.53200        5.19800        5.26400
N          2.45500        5.25800        3.02400
H          2.86700        5.63700        2.17800
C          1.34400        4.31300        2.85700
H          0.60900        4.49000        3.64300
C          0.66800        4.56200        1.49500
H          1.40700        4.39400        0.71000
H         -0.14000        3.84200        1.35400
C          0.08800        5.98200        1.35100
H         -0.82200        6.06600        1.94400
H          0.79600        6.71800        1.72400
C         -0.22800        6.35300       -0.09600
O         -0.36200        5.57600       -1.02900
O         -0.38800        7.67100       -0.32700
H         -0.61400        7.71200       -1.25700
C          1.78100        2.83600        2.97900
O          0.94200        1.94500        3.01600
N          3.07500        2.53300        3.03000
H          3.77500        3.26100        2.99600
H          3.33200        1.56500        3.11800
