62
0 1
H         10.39700        3.40500       -0.14900
C          9.40700        3.05500        0.14100
H          9.43900        2.63500        1.14500
H          9.07300        2.29100       -0.56000
C          8.44000        4.21300        0.10600
O          7.53400        4.23200       -0.71800
N          8.64100        5.18600        0.99500
H          9.39800        5.07600        1.65100
C          7.82700        6.41300        1.07500
H          6.78800        6.14500        0.87700
C          7.89700        6.97800        2.50500
H          7.15000        7.76600        2.60300
H          7.64400        6.18700        3.21300
C          9.27600        7.55300        2.86700
H         10.03000        6.78500        2.69600
H          9.49900        8.39600        2.21300
S          9.44000        8.10500        4.58600
C          8.38000        9.57700        4.56700
H          8.72500       10.26900        3.79800
H          7.34800        9.29000        4.36200
H          8.42700       10.06800        5.53900
C          8.20400        7.49500        0.04200
O          7.54000        8.52500       -0.03300
N          9.28100        7.29300       -0.72300
H          9.75800        6.40600       -0.65000
C          9.82000        8.23100       -1.70900
H          8.98700        8.75400       -2.18100
C         10.71700        9.25700       -0.98400
H         10.11700        9.77600       -0.23400
H         11.50300        8.70900       -0.46200
C         11.38500       10.30900       -1.89000
H         11.99800        9.81200       -2.64100
C         10.36200       11.20400       -2.59300
H          9.74200       10.62000       -3.27000
H          9.72600       11.69600       -1.85700
H         10.88100       11.96100       -3.18200
C         12.29700       11.20300       -1.04900
H         11.71500       11.73000       -0.29300
H         13.05800       10.59400       -0.55900
H         12.79500       11.92900       -1.69200
C         10.58100        7.44900       -2.79000
O         11.22800        6.45000       -2.47900
N         10.50200        7.90500       -4.04200
H         10.03200        8.78300       -4.20600
C         11.01400        7.21100       -5.23100
H         11.77600        6.48900       -4.92800
C          9.87000        6.43800       -5.91000
H          9.07600        7.13300       -6.18900
H         10.24500        5.97000       -6.82100
C          9.29300        5.35500       -5.03800
N          9.84000        4.08200       -4.88300
C          9.12900        3.49700       -3.90900
H          9.32700        2.50900       -3.51700
N          8.17700        4.32900       -3.45400
H          7.60200        4.16400       -2.62800
C          8.26100        5.50700       -4.15800
H          7.68400        6.40600       -3.99400
C         11.65900        8.19700       -6.21000
O         11.34600        9.38200       -6.21200
N         12.55200        7.72600       -7.06900
H         12.79300        6.74900       -7.06700
H         12.97200        8.37200       -7.71800
