67
0 1
H          7.49900        7.81700       -5.74200
C          8.56500        7.88900       -5.94900
H          8.72100        8.42200       -6.88600
H          9.00100        6.89400       -6.02000
C          9.24400        8.65100       -4.83600
O          9.84800        9.68900       -5.07500
N          9.14200        8.14000       -3.61000
H          8.66700        7.26000       -3.49700
C          9.85800        8.69800       -2.45900
H          9.78100        9.78500       -2.52000
C          9.17100        8.26100       -1.15800
H          8.10200        8.45800       -1.24500
H          9.31500        7.19000       -1.01000
C          9.69400        9.01800        0.06600
H         10.73400        8.74100        0.23800
H          9.65500       10.09000       -0.13000
S          8.74300        8.68500        1.57300
C          9.91100        9.32500        2.80000
H         10.85800        8.79100        2.71700
H         10.07600       10.38700        2.62600
H          9.50200        9.18200        3.80000
C         11.35300        8.33400       -2.51100
O         11.72200        7.22800       -2.90500
N         12.21800        9.26900       -2.11400
H         11.84400       10.12400       -1.73400
C         13.66300        9.25700       -2.39500
H         13.80200        9.15100       -3.47200
C         14.24000       10.61600       -1.97300
H         15.31600       10.62200       -2.15300
H         13.80500       11.38800       -2.61000
C         13.98100       10.98900       -0.54400
C         14.77600       10.67700        0.50300
H         15.71500       10.14000        0.42400
N         14.19500       11.12200        1.67500
H         14.61600       10.99900        2.58400
C         12.98400       11.73800        1.44000
C         12.03300       12.33400        2.28100
H         12.19400       12.37000        3.34800
C         10.87300       12.88800        1.71400
H         10.13000       13.35700        2.34600
C         10.68100       12.84200        0.32100
H          9.79100       13.28200       -0.11000
C         11.64500       12.24500       -0.51500
H         11.49700       12.24600       -1.58500
C         12.82000       11.67300        0.02400
C         14.47600        8.11800       -1.75100
O         15.62500        7.92000       -2.13400
N         13.92500        7.36500       -0.79300
H         12.97400        7.55600       -0.50800
C         14.57600        6.17000       -0.23200
H         15.65600        6.32300       -0.23400
C         14.13000        5.98500        1.22400
H         14.75400        5.22100        1.69000
H         14.28200        6.91700        1.77000
C         12.68700        5.57400        1.35400
N         11.59000        6.41400        1.16600
C         10.50700        5.63800        1.32400
H          9.48600        5.98600        1.24800
N         10.86800        4.36900        1.58100
H         10.23400        3.59600        1.72300
C         12.24300        4.30800        1.59700
H         12.86400        3.43400        1.74000
C         14.32500        4.88800       -1.05000
O         14.84100        3.83000       -0.70800
N         13.52900        4.93100       -2.11100
H         13.07600        5.79700       -2.37300
H         13.38200        4.08600       -2.63400
