60
0 1
H          7.94000        6.73100       -3.29000
C          8.12800        5.65900       -3.27400
H          8.61600        5.35200       -4.19700
H          7.18600        5.12400       -3.16200
C          9.02500        5.33300       -2.10400
O          9.40400        6.22200       -1.34900
N          9.37400        4.05600       -1.95300
H          9.02500        3.39100       -2.62900
C         10.11400        3.52600       -0.79700
H          9.52900        3.72400        0.10200
C         10.28300        2.00200       -0.93300
H         10.86200        1.77100       -1.82900
H         10.84800        1.64700       -0.06900
C          8.95700        1.22700       -0.97000
H          9.17600        0.18600       -0.73100
H          8.29900        1.61500       -0.19200
S          8.07700        1.24600       -2.56000
C          6.65700        0.20300       -2.13400
H          6.10000        0.65600       -1.31400
H          6.00500        0.10600       -3.00200
H          7.00500       -0.78600       -1.83400
C         11.48900        4.17900       -0.57700
O         11.96800        4.21900        0.55400
N         12.10500        4.74700       -1.61900
H         11.64400        4.70700       -2.52300
C         13.35200        5.51700       -1.52500
H         14.07200        4.90000       -0.98500
C         13.92300        5.76100       -2.93800
H         14.97500        6.02800       -2.82100
H         13.89500        4.82900       -3.50500
C         13.26200        6.88200       -3.76800
H         13.31600        7.81900       -3.21700
H         13.84000        7.01600       -4.68200
C         11.81300        6.62600       -4.17700
O         11.32600        5.50800       -4.23100
N         11.05700        7.65600       -4.48200
H         11.41100        8.59500       -4.41700
H         10.10900        7.45600       -4.74300
C         13.22000        6.82800       -0.72100
O         14.22700        7.47000       -0.44100
N         11.99900        7.24200       -0.36200
H         11.19800        6.69800       -0.66700
C         11.72800        8.38500        0.52300
H         12.55000        9.09200        0.44000
C         10.43000        9.09700        0.09100
H          9.59500        8.44400        0.34900
H         10.31400       10.02000        0.65900
C         10.31400        9.42000       -1.41100
H         10.67100        8.57800       -1.99800
H          9.24900        9.51100       -1.62700
S         11.08900       10.94300       -2.03900
C         12.84500       10.71600       -1.65200
H         13.16500        9.71000       -1.92100
H         13.43500       11.44400       -2.20900
H         13.01100       10.88000       -0.58700
C         11.66700        7.99600        2.01300
O         11.46500        8.84900        2.86800
N         11.82500        6.72500        2.36800
H         11.98800        6.01200        1.67000
H         11.78800        6.49600        3.34600
