60
0 1
H          2.12400        1.11500        1.04000
C          2.25200        1.66000        1.97300
H          3.30800        1.69000        2.24000
H          1.69000        1.16900        2.76500
C          1.74100        3.07000        1.80200
O          0.80600        3.47200        2.48700
N          2.35500        3.81600        0.88500
H          3.13300        3.40600        0.39000
C          2.03600        5.21600        0.58000
H          1.96000        5.76600        1.51900
C          3.17500        5.84900       -0.24400
H          3.29800        5.31400       -1.18700
H          2.89200        6.87700       -0.47600
C          4.52400        5.89000        0.48900
H          5.15000        6.62800       -0.01400
H          4.36300        6.23300        1.51100
S          5.45100        4.32700        0.52400
C          6.93200        4.87000        1.41600
H          6.65200        5.24100        2.40200
H          7.61600        4.02900        1.52800
H          7.42700        5.66400        0.85600
C          0.68300        5.35000       -0.14300
O          0.61300        5.37200       -1.36900
N         -0.40000        5.42800        0.63000
H         -0.26800        5.38000        1.63300
C         -1.78300        5.56900        0.16300
H         -1.79600        6.24100       -0.69700
C         -2.32200        4.19400       -0.30400
H         -3.38000        4.28900       -0.55000
H         -1.80900        3.92900       -1.22900
C         -2.14800        3.01400        0.67300
H         -2.61600        2.13100        0.23900
H         -1.08800        2.79200        0.78400
C         -2.77200        3.25400        2.04200
O         -3.97000        3.44800        2.17400
N         -1.99400        3.28500        3.09800
H         -2.42700        3.52600        3.97000
H         -0.98500        3.24000        2.99200
C         -2.65500        6.22000        1.25600
O         -2.17500        6.49200        2.35600
N         -3.93500        6.46100        0.96000
H         -4.26800        6.21400        0.04100
C         -4.92200        6.97300        1.92100
H         -4.61300        6.65700        2.91900
C         -4.90800        8.51400        1.90100
H         -3.87400        8.84800        1.98000
H         -5.31200        8.87600        0.95400
C         -5.70400        9.13000        3.06000
H         -6.76000        8.89900        2.92500
H         -5.37800        8.67400        3.99600
S         -5.54900       10.93200        3.22100
C         -3.84700       11.07800        3.83000
H         -3.62800       12.12500        4.04000
H         -3.73300       10.49700        4.74500
H         -3.14900       10.71300        3.07700
C         -6.30500        6.34000        1.68000
O         -7.28200        7.00300        1.35700
N         -6.39500        5.02000        1.76100
H         -5.57900        4.46600        1.99700
H         -7.28700        4.58800        1.58900
