60
0 1
H         11.68600        8.85100       -4.89500
C         12.70000        9.00300       -4.52900
H         13.40900        8.84700       -5.34000
H         12.90500        8.30400       -3.72000
C         12.83200       10.41700       -4.01600
O         11.88700       11.19200       -4.08800
N         14.00700       10.75200       -3.48700
H         14.72000       10.04000       -3.43500
C         14.32700       12.06500       -2.91200
H         13.48300       12.39600       -2.30500
C         15.55600       11.94800       -1.98800
H         16.38200       11.48300       -2.53000
H         15.86800       12.95400       -1.70500
C         15.30600       11.17400       -0.68400
H         16.18200       11.31900       -0.05100
H         14.45700       11.61900       -0.16600
S         15.04300        9.38000       -0.82500
C         13.26500        9.28500       -0.47300
H         13.07600        9.62900        0.54400
H         12.70900        9.90900       -1.17200
H         12.93200        8.25100       -0.56800
C         14.53100       13.12800       -4.01000
O         15.64800       13.56900       -4.27000
N         13.44300       13.53900       -4.66800
H         12.56100       13.10000       -4.42400
C         13.45100       14.48700       -5.79600
H         14.10000       14.07100       -6.56800
C         12.03200       14.59800       -6.38800
H         12.12000       15.04200       -7.38000
H         11.61300       13.59900       -6.51700
C         11.05000       15.46700       -5.58100
H         11.45400       16.47800       -5.51300
H         10.11900       15.53800       -6.14400
S         10.64700       14.90700       -3.90100
C          9.56200       13.50300       -4.27400
H          9.27600       13.01000       -3.34500
H          8.66700       13.85800       -4.78400
H         10.08000       12.78700       -4.91100
C         14.01600       15.87900       -5.45600
O         14.42200       16.60700       -6.35500
N         14.05400       16.24700       -4.17200
H         13.67600       15.60500       -3.49100
C         14.67100       17.47900       -3.66600
H         14.45500       18.27600       -4.38000
C         14.01300       17.86600       -2.32800
H         14.31600       18.88600       -2.08800
H         12.92800       17.86700       -2.44600
C         14.38700       16.97500       -1.13200
H         15.47200       16.93300       -1.03900
H         14.00300       17.46100       -0.23400
S         13.73300       15.27900       -1.15400
C         14.30600       14.72900        0.47500
H         15.39500       14.74900        0.50700
H         13.90800       15.39000        1.24500
H         13.95500       13.71400        0.66100
C         16.20900       17.41100       -3.54800
O         16.83600       18.37100       -3.11800
N         16.84900       16.29600       -3.88000
H         16.33700       15.48900       -4.21100
H         17.85200       16.28100       -3.80300
