59
0 1
H          6.84200        7.05200        3.78600
C          6.05400        7.79800        3.87500
H          6.30600        8.50500        4.66300
H          5.10500        7.31600        4.10600
C          5.92300        8.54200        2.56800
O          4.84600        8.58400        1.98400
N          7.02700        9.12200        2.10000
H          7.87200        9.02400        2.64400
C          7.07500       10.01500        0.93100
H          6.46000       10.89000        1.14500
C          8.51900       10.48700        0.68300
H          9.14300        9.63500        0.41600
H          8.50500       11.16800       -0.17000
C          9.15000       11.24000        1.86600
H         10.00900       11.79700        1.49000
H          8.42800       11.97000        2.23400
S          9.72300       10.23800        3.27400
C         11.12200        9.35500        2.53100
H         11.61800        8.75700        3.29600
H         10.77100        8.69600        1.73800
H         11.83400       10.07300        2.12200
C          6.51900        9.38500       -0.35700
O          5.95800       10.09500       -1.18700
N          6.60600        8.05900       -0.50400
H          7.06000        7.53400        0.23700
C          6.02400        7.29300       -1.61400
H          6.38200        7.74000       -2.54300
C          6.54800        5.84100       -1.56500
H          6.32700        5.38200       -2.52900
H          7.63400        5.85400       -1.46100
C          5.94400        4.93000       -0.47400
H          4.86100        4.90300       -0.58300
H          6.30400        3.91400       -0.64000
C          6.29600        5.30800        0.96400
O          7.28900        5.95700        1.25700
N          5.48800        4.93000        1.92600
H          4.62100        4.44200        1.71400
H          5.74000        5.18200        2.86200
C          4.48100        7.34100       -1.67900
O          3.90000        6.88400       -2.65900
N          3.81600        7.87300       -0.64900
H          4.35600        8.18000        0.15400
C          2.36800        8.11500       -0.58800
H          1.93300        7.92000       -1.56900
C          1.72700        7.13800        0.41700
H          2.27800        7.20300        1.35700
H          0.69300        7.42500        0.61400
C          1.72500        5.68100       -0.08300
H          0.81000        5.49600       -0.64600
H          2.56700        5.50100       -0.74800
C          1.82600        4.68500        1.06400
O          2.84200        4.07300        1.37400
O          0.70200        4.52100        1.78700
H          0.91100        3.88000        2.46600
C          2.03700        9.59200       -0.27500
O          0.91200        9.92600        0.07900
N          2.99100       10.51000       -0.39300
H          2.75800       11.46600       -0.18400
H          3.91400       10.25300       -0.71200
