59
0 1
H          8.04400       16.14000       -6.20900
C          8.43100       15.48000       -5.43400
H          7.68000       14.73200       -5.18100
H          8.68500       16.05700       -4.54700
C          9.66700       14.78300       -5.94800
O         10.09300       15.02700       -7.07300
N         10.23500       13.90600       -5.12400
H          9.79400       13.77100       -4.22100
C         11.44100       13.11600       -5.43000
H         11.66400       13.22800       -6.49200
C         12.65100       13.67900       -4.66200
H         13.54700       13.18800       -5.04600
H         12.75200       14.74200       -4.87900
C         12.62200       13.46300       -3.13800
H         12.48800       12.40000       -2.93900
H         13.60100       13.73900       -2.74700
S         11.37400       14.38200       -2.18300
C         11.90000       16.09200       -2.47800
H         12.94200       16.21300       -2.18100
H         11.79000       16.33800       -3.53400
H         11.27900       16.76800       -1.89000
C         11.25900       11.60400       -5.20700
O         12.16500       10.82000       -5.47500
N         10.08200       11.18000       -4.74200
H          9.37500       11.88400       -4.56700
C          9.72000        9.78900       -4.44900
H         10.46100        9.36500       -3.76900
C          8.34100        9.77400       -3.75800
H          7.61400       10.30700       -4.37200
H          8.01300        8.73500       -3.68800
C          8.33400       10.35000       -2.32600
H          7.37600       10.10800       -1.86500
H          9.10900        9.84700       -1.74600
C          8.53000       11.86500       -2.20600
O          8.36400       12.64300       -3.13400
N          8.92100       12.34900       -1.05000
H          9.11500       13.33600       -1.02500
H          9.08600       11.74700       -0.26500
C          9.70800        8.89400       -5.70400
O          9.85100        7.68100       -5.59500
N          9.58100        9.49200       -6.89100
H          9.41300       10.49100       -6.88500
C          9.72700        8.84300       -8.19700
H          9.18500        7.89700       -8.15400
C          9.05300        9.71500       -9.28100
H          8.96400        9.10000      -10.17700
H          8.03700        9.96200       -8.96700
C          9.78800       11.01200       -9.69300
H         10.83900       10.80400       -9.89000
H          9.35300       11.36100      -10.62900
C          9.68900       12.17000       -8.69700
O          9.08700       12.14000       -7.63000
O         10.35500       13.28000       -9.07000
H         10.22200       13.95500       -8.37700
C         11.18500        8.48900       -8.57100
O         11.42600        7.93200       -9.63500
N         12.18200        8.82700       -7.76100
H         12.00100        9.30700       -6.89000
H         13.11900        8.57900       -8.03000
