62
0 1
H          3.57900        0.87900        3.30200
C          3.76900        0.60200        2.26800
H          4.81700        0.78100        2.02800
H          3.13900        1.18600        1.60100
C          3.46900       -0.86600        2.07700
O          4.34700       -1.63400        1.70400
N          2.22500       -1.26300        2.33800
H          1.54500       -0.57100        2.60400
C          1.76800       -2.63400        2.09000
H          2.50600       -3.32200        2.50500
C          0.43100       -2.88300        2.80900
H          0.56800       -2.72900        3.88000
H         -0.31400       -2.17200        2.44800
C         -0.09500       -4.30600        2.57800
H         -0.26000       -4.46500        1.51200
H          0.66200       -5.01500        2.91800
S         -1.64600       -4.66900        3.43900
C         -1.77600       -6.43700        3.06300
H         -1.78100       -6.58500        1.98300
H         -0.92600       -6.96600        3.49400
H         -2.69900       -6.83300        3.48800
C          1.64100       -2.91100        0.58600
O          0.91600       -2.20300       -0.11000
N          2.28000       -3.98600        0.11700
H          2.87700       -4.49800        0.74800
C          2.05500       -4.57300       -1.20600
H          1.42500       -3.90700       -1.79700
C          3.39500       -4.75300       -1.94300
H          4.01000       -5.45300       -1.37500
H          3.19400       -5.20100       -2.91700
C          4.20300       -3.45500       -2.15300
H          4.44300       -3.01100       -1.18800
C          5.51500       -3.78400       -2.86600
H          6.10700       -2.87600       -2.98100
H          6.08700       -4.49600       -2.27100
H          5.31500       -4.21200       -3.84800
C          3.45000       -2.42600       -3.00000
H          4.08800       -1.56100       -3.17800
H          3.15800       -2.86200       -3.95500
H          2.56200       -2.08500       -2.46800
C          1.30000       -5.90000       -1.04700
O          1.74700       -6.80000       -0.33900
N          0.13800       -6.01200       -1.68700
H         -0.19000       -5.19100       -2.18400
C         -0.88700       -7.03300       -1.41500
H         -0.87600       -7.22500       -0.34200
C         -2.27000       -6.44300       -1.75600
H         -2.37300       -6.37800       -2.84000
H         -3.05100       -7.10500       -1.38000
C         -2.46900       -5.06200       -1.17700
N         -1.88600       -3.89800       -1.68200
C         -2.14800       -2.93300       -0.78900
H         -1.79400       -1.91300       -0.87000
N         -2.86600       -3.42700        0.23500
H         -3.14700       -2.90800        1.05500
C         -3.07500       -4.77100        0.01000
H         -3.56400       -5.47400        0.66900
C         -0.63500       -8.40200       -2.07400
O         -1.56500       -9.14000       -2.37300
N          0.61300       -8.76900       -2.32600
H          0.77400       -9.66300       -2.75900
H          1.37200       -8.18500       -2.00800
