60
0 1
H         10.40200        9.11600       -3.18600
C         10.05300        9.92100       -2.54000
H          8.99600       10.10500       -2.72500
H         10.62800       10.82300       -2.74200
C         10.24000        9.51400       -1.09800
O         10.59100        8.37400       -0.82200
N          9.98900       10.44500       -0.18000
H          9.70500       11.36200       -0.49500
C         10.03700       10.21600        1.27400
H         10.87400        9.54800        1.48300
C         10.31400       11.55100        1.99400
H         10.62000       11.32400        3.01600
H         11.14700       12.06000        1.50800
C          9.11300       12.51000        2.07200
H          8.29400       12.01200        2.59200
H          9.40800       13.36500        2.68000
S          8.49400       13.14400        0.48600
C          7.04700       14.06200        1.07300
H          6.35900       13.38100        1.57600
H          7.36200       14.83900        1.77000
H          6.54000       14.52200        0.22500
C          8.77600        9.53700        1.84200
O          8.76400        9.14900        3.00500
N          7.70800        9.42500        1.04700
H          7.79200        9.74000        0.09100
C          6.42000        8.83400        1.41800
H          6.60300        7.99700        2.09400
C          5.56500        9.88300        2.15600
H          6.08000       10.17700        3.07100
H          5.46100       10.76600        1.52400
C          4.16200        9.38700        2.52700
H          3.65100       10.18000        3.07400
H          3.59600        9.20100        1.61300
S          4.13900        7.88600        3.54500
C          2.35400        7.57800        3.59800
H          1.85000        8.41600        4.07900
H          1.97100        7.45700        2.58400
H          2.16000        6.66700        4.16300
C          5.72400        8.29200        0.16200
O          5.88300        8.85900       -0.91800
N          4.96400        7.20100        0.30300
H          4.78400        6.86100        1.23900
C          4.42500        6.40400       -0.80800
H          4.42500        7.00900       -1.71700
C          5.33900        5.19100       -1.05400
H          5.41600        4.59900       -0.14100
H          4.90100        4.56100       -1.82900
C          6.72000        5.58600       -1.50700
N          7.05900        5.91900       -2.81800
C          8.32200        6.36500       -2.76400
H          8.87500        6.74100       -3.61400
N          8.78300        6.32900       -1.50200
H          9.66300        6.73900       -1.19200
C          7.78600        5.83500       -0.69300
H          7.80900        5.74000        0.38300
C          2.98200        5.95900       -0.54800
O          2.53100        5.88500        0.58900
N          2.23600        5.63700       -1.59500
H          1.29000        5.33500       -1.42900
H          2.61800        5.68900       -2.52500
