67
0 1
H         12.97000       14.12900       -1.42400
C         12.94200       13.59400       -2.37300
H         13.24900       12.56200       -2.21900
H         13.60700       14.08100       -3.08400
C         11.53200       13.62800       -2.90700
O         10.66000       14.24200       -2.31000
N         11.28400       12.93200       -4.01600
H         12.04200       12.41700       -4.43600
C          9.97000       12.88800       -4.68500
H          9.71100       13.90800       -4.97500
C         10.07900       12.04400       -5.97000
H          9.21000       12.26700       -6.59200
H         10.96600       12.34700       -6.52800
C         10.11400       10.52100       -5.75500
H          9.18300       10.21100       -5.28100
H         10.14800       10.04600       -6.73600
S         11.50400        9.87300       -4.77700
C         11.03600        8.12300       -4.72000
H         11.78500        7.56300       -4.16000
H         10.06700        8.01600       -4.23100
H         10.97600        7.72600       -5.73400
C          8.82400       12.38000       -3.78800
O          7.66400       12.70100       -4.02400
N          9.14700       11.61500       -2.74300
H         10.12500       11.42100       -2.59300
C          8.21100       11.13800       -1.72100
H          7.35000       10.68500       -2.21400
C          8.92200       10.05300       -0.90100
H          8.26200        9.73200       -0.09400
H          9.08200        9.18800       -1.54600
C         10.24300       10.44800       -0.30500
C         11.45700       10.12600       -0.81100
H         11.61700        9.52900       -1.70100
N         12.44900       10.65500       -0.01000
H         13.43500       10.50400       -0.16800
C         11.92300       11.34200        1.06300
C         12.51000       12.01700        2.14400
H         13.58400       12.06800        2.23900
C         11.67900       12.61100        3.10800
H         12.11000       13.12800        3.95500
C         10.28100       12.53000        2.97400
H          9.64300       12.98700        3.71900
C          9.70400       11.84800        1.88500
H          8.62800       11.78000        1.80700
C         10.50900       11.23400        0.90000
C          7.64800       12.25500       -0.82100
O          6.68000       12.01400       -0.10700
N          8.20600       13.47100       -0.86600
H          9.03100       13.60800       -1.43900
C          7.63000       14.66200       -0.22300
H          7.30300       14.39500        0.78200
C          8.70100       15.76100       -0.10700
H          9.04000       16.04100       -1.10500
H          8.25600       16.64200        0.35800
C          9.91100       15.33900        0.73400
H          9.57100       15.10500        1.74300
H         10.35400       14.43900        0.30700
S         11.20000       16.61000        0.83400
C         12.41600       15.72200        1.83700
H         12.71000       14.80500        1.32500
H         13.29300       16.35200        1.98600
H         11.97800       15.47600        2.80400
C          6.39400       15.21400       -0.96300
O          5.70900       16.09300       -0.45500
N          6.08000       14.74100       -2.16600
H          5.26500       15.11000       -2.62300
H          6.64100       14.01900       -2.59500
