59
0 1
H          7.46500        1.97300       -2.60000
C          7.44900        2.85700       -1.96600
H          8.01700        2.66400       -1.05700
H          6.42100        3.10600       -1.70600
C          8.07100        4.01700       -2.70400
O          9.03500        4.61000       -2.23300
N          7.51100        4.36600       -3.86100
H          6.67600        3.88000       -4.15300
C          8.02900        5.42900       -4.73900
H          9.06900        5.19200       -4.96700
C          7.24800        5.43000       -6.06900
H          7.80600        6.03700       -6.78300
H          7.20600        4.41500       -6.46500
C          5.82200        6.00000       -5.99000
H          5.86500        7.02000       -5.60900
H          5.42700        6.05100       -7.00500
S          4.64300        5.05100       -4.98600
C          3.20300        6.14700       -5.09100
H          3.45300        7.12300       -4.67400
H          2.90400        6.26200       -6.13300
H          2.37700        5.71500       -4.52500
C          8.03000        6.83100       -4.10000
O          8.73500        7.71400       -4.57500
N          7.25700        7.03800       -3.03100
H          6.70600        6.25700       -2.69200
C          7.19800        8.28000       -2.25400
H          7.51200        9.09400       -2.90900
C          5.72700        8.55900       -1.86100
H          5.60600        9.64200       -1.81800
H          5.07000        8.20300       -2.65700
C          5.22100        8.00300       -0.51200
H          5.72800        8.52100        0.30200
H          4.16100        8.23800       -0.41900
C          5.38500        6.49900       -0.29000
O          5.73200        5.67800       -1.13000
O          5.11300        6.09900        0.96600
H          5.33700        5.16700        1.02500
C          8.15700        8.30800       -1.04500
O          8.16900        9.29300       -0.31300
N          8.91100        7.22900       -0.79000
H          8.84700        6.44300       -1.42700
C          9.69800        7.04800        0.44400
H          9.94500        8.03200        0.84500
C          8.83000        6.32700        1.49400
H          9.36900        6.30900        2.44100
H          7.91000        6.89400        1.64300
C          8.47000        4.88800        1.09300
H          8.00000        4.91400        0.11200
H          9.38400        4.29800        1.01100
S          7.32600        4.02400        2.20500
C          8.37000        3.84000        3.67600
H          8.61700        4.82100        4.08200
H          7.83400        3.26700        4.43200
H          9.28900        3.31500        3.41200
C         11.04700        6.32600        0.25600
O         11.84800        6.27000        1.18000
N         11.34300        5.76300       -0.90800
H         10.65500        5.72300       -1.64500
H         12.23300        5.30500       -1.00100
