62
0 1
H          7.33100        6.67500       -3.37700
C          7.22400        5.59100       -3.40000
H          7.60700        5.20800       -4.34400
H          6.17300        5.32800       -3.29100
C          8.01200        4.99600       -2.25900
O          8.64200        5.72100       -1.49800
N          7.99300        3.66800       -2.14100
H          7.46300        3.14200       -2.81700
C          8.71200        2.92100       -1.09800
H          8.59600        3.47700       -0.16600
C          8.03500        1.55100       -0.88800
H          6.98500        1.72200       -0.64600
H          8.07800        0.98200       -1.81800
C          8.64300        0.69400        0.23400
H          7.99600       -0.17100        0.38200
H          9.61300        0.31600       -0.08400
S          8.85100        1.52700        1.83300
C          9.50700        0.14300        2.80600
H         10.43300       -0.22000        2.35900
H          9.70900        0.47600        3.82400
H          8.77700       -0.66600        2.83100
C         10.22800        2.85100       -1.37300
O         10.79000        1.78800       -1.62400
N         10.90500        4.00200       -1.32700
H         10.36600        4.85200       -1.19000
C         12.36100        4.11500       -1.51800
H         12.63100        3.61000       -2.44600
C         12.75100        5.60200       -1.63000
H         12.48800        6.09900       -0.69400
H         13.83500        5.66400       -1.74200
C         12.09700        6.37300       -2.79500
H         11.01400        6.34800       -2.68900
C         12.54500        7.83400       -2.75700
H         13.62700        7.89900       -2.87900
H         12.05800        8.39000       -3.55800
H         12.26300        8.27900       -1.80300
C         12.46900        5.79600       -4.16200
H         12.04500        6.41600       -4.95100
H         13.55300        5.76400       -4.27300
H         12.06500        4.78900       -4.26600
C         13.17700        3.42100       -0.40800
O         14.34900        3.12300       -0.60400
N         12.55200        3.13000        0.73800
H         11.59100        3.41700        0.82200
C         13.11800        2.31600        1.82300
H         14.18000        2.55400        1.90500
C         12.43600        2.74800        3.13600
H         12.47900        3.83600        3.19900
H         11.38700        2.45500        3.10800
C         13.07900        2.19100        4.41200
H         12.89800        1.11800        4.47800
H         14.15600        2.35000        4.35200
S         12.48700        2.96200        5.94500
C         10.78900        2.33000        6.00800
H         10.22400        2.69300        5.15000
H         10.80500        1.24000        6.00200
H         10.30900        2.67600        6.92400
C         13.03000        0.79400        1.55100
O         13.41600       -0.02100        2.37900
N         12.50600        0.35800        0.41200
H         12.17700        1.00800       -0.28900
H         12.48700       -0.63400        0.24600
