59
0 1
H          5.82900        5.90200        0.69300
C          6.25000        6.23200       -0.25500
H          5.45000        6.51700       -0.93600
H          6.83500        5.43000       -0.70000
C          7.14800        7.41900       -0.00500
O          8.36600        7.30300       -0.07100
N          6.54500        8.56600        0.30500
H          5.53600        8.57300        0.34400
C          7.24300        9.84700        0.50800
H          7.79400       10.08300       -0.40400
C          6.22200       10.97100        0.76200
H          5.68900       10.78300        1.69600
H          6.77300       11.90600        0.87400
C          5.20300       11.16100       -0.37100
H          4.78500       12.16400       -0.27500
H          5.72300       11.10900       -1.32800
S          3.81300        9.99100       -0.38000
C          2.90500       10.60900       -1.82100
H          3.53800       10.55100       -2.70700
H          2.01300       10.00100       -1.97600
H          2.60900       11.64500       -1.65200
C          8.27200        9.81900        1.65200
O          9.16800       10.65600        1.68900
N          8.17800        8.84200        2.55800
H          7.42300        8.17600        2.44300
C          9.14300        8.59000        3.63200
H          9.23900        9.49300        4.23600
C          8.62700        7.44600        4.52700
H          8.51900        6.53300        3.93800
H          9.38700        7.25600        5.28600
C          7.30700        7.74400        5.26500
H          7.24200        7.07600        6.12400
H          7.32200        8.76500        5.64600
C          6.03400        7.53700        4.43900
O          5.97800        7.22500        3.25500
O          4.88900        7.74700        5.11400
H          4.18100        7.57500        4.49300
C         10.55200        8.24700        3.11000
O         11.52500        8.44600        3.83100
N         10.67000        7.76100        1.86900
H          9.82300        7.58500        1.33900
C         11.94500        7.48800        1.19300
H         12.72700        7.40400        1.94800
C         11.87300        6.13500        0.45800
H         11.08100        6.16000       -0.29100
H         12.81900        5.97700       -0.06000
C         11.67000        4.94000        1.40600
H         12.00700        4.04200        0.88800
H         12.31900        5.07500        2.27100
S          9.98100        4.62200        2.00300
C          9.20600        4.01600        0.48100
H          9.73900        3.13500        0.12400
H          8.16900        3.75100        0.68700
H          9.23300        4.79200       -0.28300
C         12.39100        8.63200        0.25800
O         13.33000        8.48000       -0.51500
N         11.74000        9.78900        0.28400
H         10.97200        9.93200        0.92600
H         12.05100       10.52400       -0.32800
