59
0 1
H          6.96800        2.69600        3.25700
C          7.05700        1.85500        2.57100
H          7.98700        1.32400        2.76600
H          7.05000        2.22100        1.54700
C          5.88800        0.91900        2.77400
O          5.03500        1.17600        3.61500
N          5.86700       -0.17600        2.01400
H          6.66600       -0.33300        1.42100
C          4.74100       -1.11900        1.89500
H          3.89800       -0.58200        1.45900
C          5.16700       -2.22300        0.91000
H          5.46100       -1.75700       -0.03200
H          6.03600       -2.74300        1.31500
C          4.07300       -3.25400        0.60800
H          3.77800       -3.75300        1.53000
H          3.20400       -2.73300        0.20600
S          4.58500       -4.53100       -0.57100
C          3.01600       -5.42200       -0.74400
H          3.14600       -6.25600       -1.43400
H          2.69900       -5.80300        0.22700
H          2.25300       -4.74800       -1.13500
C          4.23400       -1.71900        3.22400
O          3.07500       -2.11700        3.30000
N          5.07000       -1.78400        4.26500
H          6.02900       -1.49200        4.11000
C          4.69200       -2.24100        5.61400
H          3.60300       -2.27200        5.67700
C          5.21600       -3.66900        5.89200
H          6.25200       -3.61900        6.22800
H          4.63800       -4.06600        6.72800
C          5.11100       -4.67800        4.73300
H          5.13100       -5.68300        5.15400
H          4.15400       -4.55400        4.22600
C          6.25100       -4.59000        3.71600
O          7.25000       -3.90300        3.88200
N          6.15000       -5.28600        2.60600
H          6.91000       -5.20600        1.95300
H          5.33600       -5.84200        2.41900
C          5.15700       -1.28600        6.73200
O          4.99600       -1.59600        7.90900
N          5.79400       -0.16200        6.38300
H          5.83200        0.06700        5.39800
C          6.59100        0.64800        7.31700
H          6.06400        0.66300        8.27300
C          7.96100       -0.03300        7.56300
H          8.47700        0.52600        8.34500
H          7.79400       -1.03700        7.95600
C          8.90500       -0.12500        6.34800
H          9.01000        0.85500        5.88200
H          9.88800       -0.43700        6.70000
C          8.43800       -1.13200        5.30000
O          7.83100       -0.83300        4.27900
O          8.67000       -2.42600        5.59600
H          8.25600       -2.96500        4.89500
C          6.73600        2.12900        6.90400
O          7.59000        2.84300        7.41400
N          5.94000        2.63000        5.96800
H          6.04600        3.60000        5.72400
H          5.26500        2.04600        5.49300
