60
0 1
H         18.30800        7.17600        1.43000
C         18.54400        8.22500        1.60400
H         18.68800        8.73900        0.65600
H         19.45100        8.29400        2.20300
C         17.40600        8.86600        2.36100
O         17.58700        9.30200        3.49300
N         16.23200        8.92600        1.73300
H         16.17500        8.54700        0.79800
C         15.00400        9.49700        2.31000
H         15.29100       10.29800        2.99300
C         14.15600       10.12500        1.18600
H         13.43200       10.79800        1.64800
H         14.79600       10.72700        0.54000
C         13.36900        9.12100        0.32600
H         12.68400        8.56500        0.96700
H         12.75800        9.68600       -0.37900
S         14.36300        7.93600       -0.62500
C         13.04300        6.81600       -1.16100
H         12.55200        6.38100       -0.29000
H         12.31000        7.36600       -1.75100
H         13.46800        6.01600       -1.76900
C         14.16400        8.49700        3.12600
O         13.27900        8.91700        3.86800
N         14.40100        7.19000        2.96600
H         15.18600        6.93600        2.38200
C         13.62300        6.08900        3.55500
H         13.89100        5.18500        3.00700
C         14.01200        5.83600        5.03200
H         13.90500        6.76000        5.60300
H         13.32100        5.10200        5.44900
C         15.43500        5.27700        5.22600
H         15.60400        5.10900        6.28900
H         15.51400        4.31700        4.71400
C         16.52400        6.20400        4.69900
O         17.09000        5.98200        3.64200
N         16.77700        7.31700        5.35100
H         16.27400        7.55800        6.18200
H         17.36400        7.99300        4.86900
C         12.11200        6.26500        3.30200
O         11.66300        6.09200        2.17200
N         11.33000        6.62100        4.32500
H         11.75200        6.71300        5.23900
C          9.87900        6.84000        4.24200
H          9.42900        5.99600        3.71700
C          9.30800        6.89200        5.66900
H          9.65200        7.80700        6.15300
H          8.21900        6.93400        5.61300
C          9.70800        5.72500        6.54000
N         10.95900        5.55500        7.14000
C         10.89100        4.39500        7.80900
H         11.70200        3.97600        8.39100
N          9.67900        3.83300        7.65500
H          9.38400        2.95800        8.06400
C          8.91900        4.65800        6.85600
H          7.89800        4.50300        6.53300
C          9.47000        8.10500        3.46800
O          8.30300        8.26700        3.13200
N         10.38300        9.02400        3.18200
H         10.09400        9.84500        2.68000
H         11.34200        8.89300        3.47900
