67
0 1
H         11.70300       11.41600        5.83900
C         10.97500       11.99800        5.27700
H         11.45800       12.88200        4.86300
H         10.15900       12.30200        5.93000
C         10.42800       11.16100        4.14500
O         10.56100       11.53000        2.98500
N          9.80400       10.03300        4.48300
H          9.71900        9.81600        5.46300
C          9.19000        9.10200        3.52300
H          9.85600        9.00700        2.66400
C          9.04100        7.70500        4.15100
H          8.43300        7.77300        5.05500
H          8.53000        7.05900        3.43800
C         10.39500        7.07200        4.50000
H         10.99100        6.98800        3.59200
H         10.92400        7.73200        5.18700
S         10.30000        5.43800        5.28200
C          9.57200        4.44300        3.95100
H          8.56300        4.79400        3.73300
H         10.18800        4.51800        3.05700
H          9.52200        3.40100        4.26800
C          7.85200        9.63000        2.97200
O          6.79000        9.06500        3.22600
N          7.90400       10.72500        2.21000
H          8.81300       11.14800        2.06400
C          6.74800       11.33400        1.53200
H          6.00900       11.63100        2.27700
C          7.23800       12.58700        0.79000
H          6.37700       13.08100        0.33900
H          7.66700       13.28100        1.51500
C          8.25000       12.32800       -0.29000
C          9.59200       12.40100       -0.14000
H         10.10100       12.68400        0.77500
N         10.21200       12.02100       -1.31400
H         11.21500       11.97700       -1.42200
C          9.29800       11.67700       -2.28500
C          9.43000       11.21800       -3.60400
H         10.40800       11.07300       -4.03600
C          8.27100       10.94800       -4.35300
H          8.35200       10.59300       -5.37100
C          7.00400       11.14400       -3.77600
H          6.11300       10.93700       -4.35400
C          6.88400       11.60600       -2.45000
H          5.90300       11.74600       -2.01800
C          8.02800       11.88000       -1.66600
C          6.04500       10.37500        0.55500
O          4.86300       10.53900        0.26900
N          6.76500        9.36500        0.05800
H          7.74400        9.32000        0.30900
C          6.27100        8.30000       -0.81700
H          5.54600        8.72400       -1.51300
C          7.46700        7.76900       -1.61800
H          7.11100        7.04400       -2.35100
H          7.92200        8.59400       -2.16700
C          8.53000        7.12100       -0.76100
N          9.40400        7.78900        0.10400
C         10.19200        6.83900        0.62900
H         11.00500        7.03000        1.31600
N          9.84200        5.62500        0.16900
H         10.29700        4.75400        0.39900
C          8.79200        5.78400       -0.70700
H          8.27000        5.01400       -1.26000
C          5.55400        7.15900       -0.06900
O          5.15600        6.17400       -0.68100
N          5.39900        7.22900        1.24700
H          4.91900        6.47900        1.71400
H          5.74200        8.03100        1.75900
