66
0 1
H         13.92100       10.65900        1.31800
C         14.68100        9.91800        1.55300
H         15.40000       10.32600        2.26100
H         15.19600        9.62300        0.64000
C         14.00700        8.70600        2.14700
O         13.79100        7.72600        1.44200
N         13.67400        8.77200        3.43600
H         13.95200        9.59700        3.95000
C         13.10100        7.65000        4.20200
H         12.93000        6.81700        3.52000
C         14.12600        7.16400        5.24500
H         13.80600        6.18200        5.59800
H         15.09900        7.04100        4.76900
C         14.27600        8.07400        6.47500
H         13.30600        8.18300        6.96000
H         14.93700        7.57200        7.18200
S         14.95800        9.72600        6.15800
C         14.85000       10.42000        7.82700
H         13.80900       10.43500        8.14900
H         15.43700        9.81200        8.51600
H         15.24100       11.43700        7.82000
C         11.73500        7.94300        4.84700
O         11.09500        7.02300        5.35100
N         11.26500        9.19500        4.84000
H         11.82900        9.91100        4.41100
C         10.01400        9.60700        5.50200
H         10.07100        9.31900        6.55300
C          9.88000       11.13400        5.43500
H          9.71100       11.42400        4.39600
H          8.99600       11.43100        6.00200
C         11.05700       11.90600        5.94900
C         11.21900       12.32500        7.22400
H         10.50200       12.16600        8.02100
N         12.42800       12.98200        7.34700
H         12.74500       13.40600        8.20700
C         13.11400       13.01000        6.15200
C         14.35500       13.54400        5.77500
H         14.97600       14.04900        6.49900
C         14.77200       13.42100        4.44000
H         15.72000       13.83700        4.12800
C         13.94400       12.77600        3.50300
H         14.26000       12.71900        2.47100
C         12.70400       12.23200        3.89400
H         12.06900       11.76100        3.15800
C         12.25800       12.33300        5.23100
C          8.74900        8.94000        4.93600
O          7.73600        8.86200        5.62400
N          8.81100        8.43400        3.70300
H          9.67400        8.57300        3.19200
C          7.76300        7.64000        3.05500
H          6.81000        8.12800        3.26200
C          7.97400        7.66800        1.52400
H          7.05400        7.30100        1.06700
H          8.10000        8.70100        1.19400
C          9.13200        6.81000        0.96600
H          9.07500        5.79800        1.36500
H          9.00100        6.73100       -0.11300
C         10.53900        7.35900        1.20700
O         10.80600        8.43000        1.74200
O         11.52400        6.54500        0.78200
H         12.37600        6.98100        0.97500
C          7.63600        6.19700        3.59300
O          6.78200        5.44600        3.13700
N          8.48100        5.75500        4.51800
H          9.20500        6.35700        4.88500
H          8.37200        4.81200        4.85100
