56
0 1
H          2.37100       12.18300        2.09300
C          2.93600       11.27200        2.28300
H          2.25200       10.46800        2.54800
H          3.64400       11.44200        3.09100
C          3.68700       10.89300        1.02900
O          3.59100       11.58100        0.02200
N          4.43900        9.79500        1.09200
H          4.43700        9.26500        1.94700
C          5.16200        9.24700       -0.06000
H          5.75100       10.04700       -0.50400
C          6.14300        8.16400        0.42600
H          6.85900        8.61200        1.11700
H          5.58600        7.39400        0.96200
C          6.91400        7.48900       -0.71500
H          7.51500        6.68200       -0.29500
H          6.20600        7.03900       -1.40900
S          8.01700        8.59400       -1.63600
C          8.37700        7.52100       -3.05100
H          9.06300        8.03000       -3.72900
H          8.83400        6.59500       -2.70200
H          7.45300        7.29100       -3.58100
C          4.18200        8.67700       -1.10900
O          3.39400        7.79400       -0.75800
N          4.23500        9.10000       -2.38900
C          4.93700       10.26700       -2.90100
H          5.96400        9.99700       -3.14600
H          4.91900       11.09800       -2.19500
C          4.18700       10.65800       -4.17100
H          4.82900       11.19200       -4.87300
H          3.31200       11.25600       -3.91200
C          3.74300        9.30300       -4.72100
H          4.57000        8.85400       -5.27500
H          2.86400        9.39500       -5.35900
C          3.44300        8.48900       -3.45600
H          2.38700        8.59700       -3.20500
C          3.78100        7.00300       -3.63700
O          4.94800        6.63300       -3.75700
N          2.75900        6.14500       -3.66800
H          1.82000        6.50800       -3.58900
C          2.89100        4.68900       -3.77900
H          3.80700        4.45600       -4.32400
C          2.95800        4.04800       -2.37500
H          2.10500        4.39500       -1.78900
H          2.86800        2.96600       -2.47500
C          4.24900        4.34300       -1.58900
H          4.36000        5.41400       -1.44000
H          4.17000        3.88700       -0.60200
C          5.50700        3.79700       -2.25900
O          5.53200        3.02100       -3.20700
O          6.66900        4.18400       -1.69700
H          7.34500        3.77700       -2.23900
C          1.73000        4.08900       -4.58300
O          0.64500        4.65700       -4.65500
N          1.93100        2.92500       -5.18700
H          1.17200        2.52400       -5.71300
H          2.82600        2.46800       -5.11700
