67
0 1
H          6.82000       12.62000       -0.19600
C          6.15400       13.02400       -0.95700
H          6.21900       14.11100       -0.95800
H          5.13200       12.71800       -0.75000
C          6.55800       12.50300       -2.31300
O          6.65800       13.28000       -3.25600
N          6.77700       11.19200       -2.41200
H          6.70700       10.64800       -1.56400
C          7.36500       10.54600       -3.59900
H          7.21100       11.20300       -4.45600
C          8.88800       10.40900       -3.40000
H          9.33500       10.17900       -4.36800
H          9.30000       11.36500       -3.07500
C          9.31500        9.30300       -2.41700
H          8.95900        8.34500       -2.79600
H         10.40500        9.25700       -2.41700
S          8.76500        9.46500       -0.69000
C          9.70500       10.92700       -0.17300
H          9.40500       11.79200       -0.76400
H          9.51100       11.12800        0.88100
H         10.77200       10.74400       -0.31200
C          6.73600        9.19800       -3.99400
O          7.08000        8.65400       -5.03800
N          5.81300        8.65200       -3.19800
H          5.53200        9.15600       -2.37100
C          5.12300        7.37800       -3.47800
H          5.86300        6.59600       -3.65400
C          4.28700        6.99400       -2.24800
H          3.59600        6.19300       -2.51500
H          4.96300        6.59700       -1.49100
C          3.52200        8.12600       -1.62800
C          2.29700        8.55200       -2.00600
H          1.69900        8.10500       -2.79200
N          1.95400        9.67700       -1.28200
H          1.11200       10.20800       -1.45600
C          2.94300       10.03200       -0.39100
C          3.07000       11.07200        0.54100
H          2.27000       11.78500        0.67300
C          4.24200       11.16000        1.31200
H          4.34900       11.94400        2.05000
C          5.27800       10.22600        1.12300
H          6.17700       10.29300        1.72200
C          5.14300        9.19000        0.17800
H          5.93500        8.46400        0.06300
C          3.96700        9.05900       -0.59400
C          4.23800        7.43000       -4.73600
O          4.06400        6.42100       -5.41000
N          3.71300        8.60800       -5.07900
H          3.83500        9.38000       -4.43600
C          3.03100        8.91100       -6.34700
H          2.41300        8.05700       -6.63000
C          2.11100       10.12500       -6.12100
H          1.73700       10.50600       -7.07200
H          1.24800        9.79500       -5.54100
C          2.78100       11.24000       -5.35800
N          2.65700       11.43700       -3.98200
C          3.52300       12.40800       -3.67000
H          3.67600       12.79600       -2.67300
N          4.21200       12.79200       -4.75800
H          5.00500       13.42600       -4.73800
C          3.75700       12.06500       -5.83600
H          4.13400       12.08600       -6.85100
C          3.99000        9.14400       -7.53500
O          3.55900        9.54800       -8.60800
N          5.29300        8.93900       -7.39000
H          5.67100        8.60600       -6.51400
H          5.89000        9.08800       -8.18500
