64
0 1
H         11.12000       12.46800        1.87000
C         10.61700       11.81400        2.57900
H          9.57400       12.10500        2.67900
H         11.10900       11.87800        3.54900
C         10.69300       10.38800        2.08700
O         11.24400        9.53000        2.76300
N         10.14100       10.13500        0.90200
H          9.73300       10.90000        0.38500
C         10.12000        8.81500        0.26100
H         11.03400        8.28500        0.53200
C          8.92200        8.00000        0.78000
H          9.02200        6.97400        0.43000
H          8.94800        7.98000        1.87100
C          7.55800        8.54000        0.32500
H          7.46600        9.58100        0.63400
H          7.50200        8.50000       -0.76300
S          6.14900        7.62100        0.99100
C          4.80100        8.45600        0.11300
H          4.93800        8.34600       -0.96300
H          3.84900        8.01000        0.39800
H          4.79400        9.51500        0.37000
C         10.08500        8.95400       -1.26700
O          9.57000        9.94300       -1.78500
N         10.59600        7.95800       -1.99800
H         10.98500        7.15300       -1.53200
C         10.58300        7.96600       -3.47000
H         10.82800        8.97400       -3.81000
C         11.67700        7.02500       -3.99900
H         11.74200        7.14800       -5.08100
H         12.63800        7.33800       -3.58800
C         11.46300        5.55300       -3.69600
C         12.06300        4.96800       -2.56200
H         12.69400        5.55900       -1.91400
C         11.85300        3.60400       -2.27700
H         12.31000        3.15700       -1.40800
C         11.04500        2.82200       -3.13300
O         10.83000        1.50900       -2.86300
H         11.23800        1.23900       -2.04000
C         10.46000        3.40600       -4.27500
H          9.85100        2.79600       -4.92500
C         10.66800        4.76900       -4.55500
H         10.21700        5.21400       -5.43300
C          9.20600        7.62500       -4.07600
O          8.97800        7.87400       -5.25600
N          8.28000        7.07200       -3.28400
H          8.55500        6.84900       -2.34000
C          6.93200        6.65400       -3.69900
H          7.02400        6.18800       -4.68100
C          6.38500        5.58100       -2.73200
H          6.14700        6.03700       -1.77100
H          5.46200        5.18500       -3.15600
C          7.34800        4.40300       -2.51400
H          6.75900        3.52000       -2.26500
H          7.86600        4.19600       -3.45000
S          8.57900        4.63700       -1.19700
C          7.55800        4.28300        0.25900
H          6.68300        4.93100        0.26800
H          7.23100        3.24300        0.23200
H          8.14100        4.45300        1.16400
C          5.94500        7.83000       -3.87600
O          4.78600        7.75600       -3.48500
N          6.38300        8.95400       -4.42600
H          7.32900        8.99600       -4.77900
H          5.74300        9.72400       -4.52800
