59
0 1
H         10.68100        4.85100       -5.98900
C          9.61800        4.62000       -5.98300
H          9.44600        3.66700       -5.48700
H          9.24900        4.57100       -7.00700
C          8.87400        5.71000       -5.24800
O          8.01200        6.36200       -5.82100
N          9.20600        5.90300       -3.97300
H          9.95200        5.34700       -3.58000
C          8.64000        6.94900       -3.11200
H          8.52500        7.86000       -3.70200
C          7.24600        6.53100       -2.60400
H          6.83200        7.34400       -2.00700
H          6.58800        6.38300       -3.46000
C          7.25300        5.25400       -1.75100
H          7.54800        4.40900       -2.37300
H          7.99300        5.36000       -0.95900
S          5.66500        4.86700       -0.96300
C          4.65800        4.45300       -2.41400
H          3.67000        4.12900       -2.08800
H          4.55100        5.32800       -3.05600
H          5.13300        3.64700       -2.97500
C          9.58400        7.26700       -1.94300
O         10.49100        6.49500       -1.63800
N          9.33700        8.37900       -1.24900
H          8.52700        8.93400       -1.50000
C         10.10500        8.84400       -0.08200
H         11.15800        8.94900       -0.34800
C          9.53400       10.21600        0.32400
H         10.17300       10.65500        1.09200
H          9.53400       10.88500       -0.53700
C          8.12500       10.10400        0.86500
N          7.00200        9.75800        0.10900
C          6.00800        9.57400        0.99200
H          5.00000        9.27500        0.73200
N          6.45300        9.75000        2.24700
H          5.92100        9.54100        3.09300
C          7.78700       10.08700        2.18700
H          8.46200       10.22500        3.02200
C         10.02200        7.91800        1.14400
O         10.81900        8.05000        2.06600
N          9.00800        7.04900        1.20500
H          8.40300        7.01500        0.40000
C          8.45700        6.55400        2.47000
H          8.37800        7.42600        3.12000
C          7.03400        6.02700        2.19300
H          6.51200        6.75600        1.57200
H          7.10600        5.09800        1.62600
C          6.15900        5.77500        3.43400
H          5.13400        5.59800        3.10900
H          6.49200        4.87700        3.95300
C          6.16200        6.95900        4.39600
O          5.45000        7.94700        4.25000
O          7.07600        6.87400        5.39700
H          7.67500        6.12300        5.27300
C          9.32300        5.53300        3.23900
O          8.96600        5.15400        4.35200
N         10.43900        5.07000        2.69200
H         11.00500        4.42600        3.22000
H         10.75300        5.44400        1.81000
