58
0 1
H          8.35400       11.49400       -2.51000
C          7.73700       10.60600       -2.38200
H          8.18700        9.76800       -2.91200
H          6.73700       10.79400       -2.76800
C          7.65300       10.27000       -0.91300
O          8.28000       10.93500       -0.09400
N          6.88700        9.23100       -0.58500
H          6.42700        8.74000       -1.34000
C          6.69900        8.71200        0.78200
H          7.17100        9.40400        1.47900
C          5.19700        8.68500        1.12500
H          5.10400        8.58500        2.20700
H          4.74300        9.63700        0.84500
C          4.39800        7.53700        0.48500
H          4.84600        6.58600        0.77400
H          3.39200        7.56100        0.90700
S          4.23600        7.58200       -1.32300
C          3.28600        6.05900       -1.57300
H          3.08500        5.92500       -2.63600
H          3.85700        5.20500       -1.20600
H          2.34100        6.12200       -1.03400
C          7.36600        7.34400        1.01800
O          7.35400        6.83000        2.13400
N          7.95900        6.74500       -0.01800
H          7.97800        7.25300       -0.89600
C          8.57900        5.41300        0.00100
H          7.84600        4.69600        0.37500
C          8.96600        5.01300       -1.43700
H          9.60000        5.78300       -1.88100
H          9.55500        4.09700       -1.38100
C          7.76700        4.71900       -2.36200
H          8.13000        4.14600       -3.21600
H          7.04700        4.09300       -1.83500
C          7.04200        5.94500       -2.92100
O          7.34900        7.11700       -2.73900
O          5.96100        5.66100       -3.67000
H          5.59900        6.50800       -3.93400
C          9.80100        5.30900        0.93800
O         10.24500        4.20800        1.24600
N         10.32400        6.44100        1.41300
H          9.92900        7.29900        1.05600
C         11.40100        6.53400        2.40600
H         12.21700        5.88500        2.08500
C         11.93000        7.98400        2.48300
H         11.20900        8.60400        3.01700
H         12.84600        7.96700        3.07700
C         12.25700        8.64700        1.13100
H         12.97800        9.44600        1.30200
H         12.70700        7.92000        0.45500
C         11.02100        9.26300        0.47900
O         10.32900        8.69700       -0.35800
O         10.65800       10.46300        0.97200
H          9.81800       10.71500        0.54200
C         10.97800        6.06800        3.81600
O         11.82300        5.88800        4.68400
N          9.68900        5.89300        4.09300
H          8.98600        6.05900        3.38700
H          9.43900        5.58200        5.01700
