56
0 1
H          8.31000        3.26700       -4.71800
C          8.75500        3.22000       -3.72500
H          9.37400        4.09800       -3.55200
H          9.36300        2.32100       -3.64000
C          7.65700        3.16700       -2.68900
O          7.56700        2.20900       -1.93200
N          6.81900        4.20000       -2.65100
H          6.92800        4.93400       -3.33100
C          5.65500        4.24600       -1.75800
H          5.98800        4.00800       -0.75000
C          5.05000        5.65700       -1.72600
H          4.71400        5.92500       -2.72800
H          4.18300        5.65000       -1.06300
C          6.03700        6.71900       -1.22800
H          6.48200        6.36600       -0.29700
H          6.83600        6.83900       -1.96000
S          5.30300        8.34800       -0.90400
C          4.68600        8.78900       -2.55300
H          3.90000        8.09500       -2.85400
H          4.27600        9.79800       -2.52600
H          5.50300        8.75200       -3.27400
C          4.57300        3.24100       -2.20300
O          4.22300        3.23000       -3.38700
N          3.98600        2.43700       -1.29500
C          4.53700        2.03400       -0.01200
H          4.12200        2.66200        0.77900
H          5.62700        2.07000       -0.00000
C          4.07800        0.59100        0.16600
H          4.04700        0.30100        1.21700
H          4.73400       -0.07400       -0.39900
C          2.68500        0.60200       -0.46500
H          1.95800        0.90200        0.29100
H          2.42300       -0.37900       -0.86400
C          2.78100        1.65600       -1.58100
H          2.90800        1.14600       -2.53700
C          1.53100        2.55100       -1.63000
O          1.17000        3.17700       -0.63500
N          0.83400        2.58900       -2.76800
H          1.20800        2.10200       -3.57000
C         -0.41700        3.34300       -2.95600
H         -0.34000        4.28200       -2.40500
C         -0.61200        3.69500       -4.45000
H         -0.38300        2.82200       -5.06500
H         -1.65800        3.95100       -4.62100
C          0.21800        4.90400       -4.92800
H          0.06300        5.02900       -5.99900
H         -0.14400        5.80100       -4.42400
C          1.71600        4.78400       -4.67400
O          2.37900        5.60000       -4.05000
O          2.28200        3.64600       -5.12700
H          3.15800        3.61100       -4.70000
C         -1.62000        2.58800       -2.34900
O         -2.53700        2.16200       -3.04000
N         -1.61700        2.37400       -1.04000
H         -2.38900        1.87500       -0.63000
H         -0.83800        2.70600       -0.48600
