60
0 1
H         -2.40000        5.60300        1.69000
C         -1.63400        6.17800        1.17300
H         -1.88500        7.23700        1.20900
H         -1.55800        5.84600        0.13900
C         -0.31000        5.96800        1.86600
O         -0.25700        5.32800        2.90900
N          0.75600        6.51700        1.28700
H          0.60300        7.03100        0.42500
C          2.13500        6.45800        1.81300
H          2.09000        6.26100        2.88500
C          2.91400        5.30100        1.15500
H          2.97500        5.47100        0.07900
H          3.92800        5.28200        1.55700
C          2.28500        3.92600        1.41000
H          2.17300        3.78900        2.48600
H          1.29600        3.89400        0.95500
S          3.25200        2.54200        0.75100
C          2.21200        1.16600        1.30500
H          1.21700        1.26000        0.87100
H          2.65800        0.22300        0.98600
H          2.13700        1.17900        2.39300
C          2.87600        7.80200        1.65600
O          4.10100        7.86400        1.68400
N          2.12300        8.88100        1.43300
H          1.12500        8.72600        1.40800
C          2.60900       10.13800        0.84100
H          3.67500       10.25900        1.04100
C          2.39000       10.03400       -0.67700
H          2.79400       10.92700       -1.15700
H          2.93900        9.17400       -1.06200
C          0.93200        9.88600       -1.05300
N          0.14100        8.75300       -0.82500
C         -1.09200        9.07800       -1.24200
H         -1.94700        8.41500       -1.20800
N         -1.11700       10.34200       -1.70000
H         -1.93100       10.81700       -2.06400
C          0.14900       10.87000       -1.58200
H          0.47100       11.87200       -1.83400
C          1.89300       11.38700        1.38000
O          2.31900       12.50900        1.12600
N          0.79800       11.20300        2.11900
H          0.53000       10.24800        2.32000
C         -0.09800       12.23000        2.66300
H         -0.22400       13.01300        1.91400
C         -1.46500       11.56300        2.89700
H         -2.15500       12.27400        3.35400
H         -1.88200       11.27700        1.93100
C         -1.38000       10.31900        3.75100
N         -0.93300        9.06800        3.30800
C         -0.93800        8.27700        4.39400
H         -0.64400        7.23500        4.40200
N         -1.34400        8.96400        5.47600
H         -1.41100        8.59100        6.41200
C         -1.61900       10.25700        5.09100
H         -1.92100       11.08500        5.72000
C          0.45300       12.93200        3.92200
O         -0.28200       13.25500        4.84800
N          1.75600       13.16800        3.99700
H          2.11800       13.61800        4.82000
H          2.34400       12.94600        3.20700
