62
0 1
H          3.76200       10.61200       -6.41200
C          3.10900        9.85200       -6.83400
H          3.12500        9.90800       -7.92200
H          2.09000       10.00900       -6.48500
C          3.57500        8.48500       -6.39300
O          2.90100        7.82600       -5.61200
N          4.74800        8.07200       -6.87500
H          5.22900        8.68400       -7.51400
C          5.29200        6.71300       -6.69200
H          4.57800        6.01100       -7.12500
C          6.61000        6.61300       -7.48500
H          6.45000        6.99300       -8.49500
H          7.36200        7.23800       -7.00100
C          7.16000        5.18600       -7.60100
H          8.13400        5.23100       -8.09000
H          7.31400        4.77200       -6.60500
S          6.10500        4.06200       -8.55600
C          6.90700        2.48700       -8.15900
H          6.86700        2.31800       -7.08200
H          6.38600        1.67600       -8.66900
H          7.94700        2.51000       -8.48500
C          5.48300        6.29000       -5.21900
O          5.50900        5.10000       -4.92100
N          5.55900        7.24900       -4.28800
H          5.48100        8.20300       -4.59700
C          5.60100        7.00100       -2.84000
H          6.47500        6.38600       -2.62200
C          5.76100        8.36800       -2.14400
H          6.68000        8.83400       -2.50100
H          4.92600        9.00300       -2.44500
C          5.79500        8.33500       -0.60200
H          4.87100        7.90500       -0.21900
C          6.98500        7.53600       -0.06700
H          7.00200        7.59100        1.02200
H          6.88400        6.48800       -0.34800
H          7.91900        7.93300       -0.46400
C          5.90500        9.76400       -0.06900
H          5.89900        9.74900        1.02100
H          6.82800       10.22800       -0.41700
H          5.05200       10.34900       -0.41200
C          4.36800        6.22900       -2.32300
O          4.47400        5.50100       -1.34100
N          3.21800        6.36200       -2.99100
H          3.19800        6.98200       -3.79300
C          1.97900        5.64000       -2.67500
H          2.02300        5.31900       -1.63400
C          0.77100        6.58600       -2.81200
H          0.68000        6.92600       -3.84300
H         -0.13100        6.02300       -2.56400
C          0.83100        7.79200       -1.85800
H         -0.18600        8.15800       -1.71700
H          1.18700        7.44500       -0.88700
S          1.85200        9.21000       -2.37000
C          0.84900        9.85600       -3.73300
H         -0.14900       10.10000       -3.37000
H          1.31700       10.75600       -4.13100
H          0.77500        9.11100       -4.52500
C          1.80000        4.35000       -3.50200
O          0.73200        3.74700       -3.49800
N          2.80900        3.89800       -4.23800
H          2.67300        3.05500       -4.76900
H          3.69800        4.37900       -4.23900
