60
0 1
H         -0.65600        4.06500       -1.41000
C         -0.20200        4.15900       -2.39500
H         -0.10900        5.21100       -2.65900
H         -0.81200        3.64100       -3.13200
C          1.17600        3.54300       -2.36200
O          1.64100        3.13000       -1.30700
N          1.83200        3.50500       -3.51800
H          1.37300        3.92900       -4.31300
C          3.22000        3.02900       -3.67900
H          3.80200        3.32800       -2.80600
C          3.20700        1.48800       -3.74700
H          2.91200        1.10900       -2.76800
H          2.46200        1.15500       -4.47200
C          4.56000        0.86200       -4.11100
H          5.35800        1.45900       -3.66800
H          4.60500       -0.13400       -3.67100
S          4.85200        0.68500       -5.89500
C          6.62300        0.30800       -5.87300
H          6.97400        0.15800       -6.89500
H          7.16700        1.14000       -5.42600
H          6.80000       -0.59800       -5.29300
C          3.90200        3.65600       -4.90500
O          5.08300        3.99400       -4.87100
N          3.12200        3.89000       -5.96100
H          2.15500        3.60600       -5.89000
C          3.48100        4.57200       -7.20900
H          4.24900        4.00000       -7.73100
C          2.20200        4.61600       -8.06000
H          2.41500        5.11400       -9.00700
H          1.88600        3.59600       -8.28400
C          1.06400        5.33000       -7.36200
N          0.35600        4.84200       -6.25600
C         -0.48700        5.82400       -5.90100
H         -1.18500        5.76700       -5.07500
N         -0.33500        6.89000       -6.70700
H         -0.84500        7.75900       -6.63000
C          0.64300        6.59900       -7.63100
H          1.03700        7.25100       -8.39900
C          4.01900        6.00200       -7.03100
O          4.62100        6.53900       -7.95600
N          3.80200        6.63000       -5.87300
H          3.29100        6.13900       -5.15100
C          4.35200        7.94400       -5.51800
H          4.34600        8.58200       -6.40300
C          3.44600        8.57400       -4.45100
H          3.77500        9.59700       -4.26200
H          2.42400        8.61700       -4.82800
C          3.45100        7.81100       -3.15100
N          2.75300        6.62600       -2.90100
C          3.11500        6.24900       -1.66300
H          2.75800        5.36200       -1.15700
N          3.99600        7.11800       -1.14100
H          4.43100        7.03300       -0.23400
C          4.22700        8.10800       -2.06900
H          4.91700        8.93800       -1.99000
C          5.81200        7.89200       -5.02800
O          6.40600        8.93000       -4.76000
N          6.41300        6.71900       -4.86900
H          7.36600        6.70700       -4.54900
H          5.91100        5.85900       -5.05000
