60
0 1
H         10.87400        9.86300       -8.72000
C         11.01700       10.84700       -8.27700
H         10.26100       11.53600       -8.64900
H         12.00700       11.22300       -8.52800
C         10.90100       10.73900       -6.77600
O         11.83600       11.07000       -6.05800
N          9.75100       10.26500       -6.29600
H          9.03300       10.01200       -6.95600
C          9.43000       10.18900       -4.85900
H          9.52000       11.19400       -4.44300
C          7.96800        9.74200       -4.68900
H          7.68000        9.86700       -3.64400
H          7.32800       10.38800       -5.29100
C          7.72100        8.28100       -5.08900
H          8.12200        8.10800       -6.08800
H          8.24700        7.62900       -4.39000
S          5.97100        7.81700       -5.09700
C          6.12200        6.05600       -5.49700
H          6.61500        5.93900       -6.46200
H          6.70700        5.55400       -4.72600
H          5.12900        5.60900       -5.54300
C         10.37700        9.29200       -4.04100
O         10.46200        9.44000       -2.82500
N         11.12200        8.39200       -4.69100
H         11.06800        8.36300       -5.70100
C         12.16400        7.56700       -4.06500
H         11.74600        7.05300       -3.19800
C         12.63200        6.52300       -5.08800
H         13.36100        5.86300       -4.61600
H         11.78100        5.91600       -5.39800
C         13.25300        7.14900       -6.31100
N         12.54900        7.74600       -7.36100
C         13.48500        8.28300       -8.16000
H         13.27400        8.83500       -9.06700
N         14.71400        8.07100       -7.66100
H         15.57700        8.44100       -8.03700
C         14.58700        7.36200       -6.49000
H         15.37700        7.08500       -5.80400
C         13.36400        8.38600       -3.55800
O         14.13300        7.88000       -2.74800
N         13.52300        9.63700       -4.00500
H         12.87700        9.98400       -4.70500
C         14.53400       10.57200       -3.49200
H         15.47400       10.03200       -3.37000
C         14.75900       11.70800       -4.50700
H         13.83200       12.27200       -4.61500
H         15.51400       12.39100       -4.11700
C         15.20300       11.22900       -5.89700
H         14.41000       10.61600       -6.32300
H         15.31000       12.10600       -6.53600
S         16.75200       10.27900       -5.98200
C         17.94000       11.48900       -5.33900
H         17.88400       12.40800       -5.92300
H         17.71900       11.70600       -4.29400
H         18.94800       11.07800       -5.40900
C         14.18300       11.16100       -2.11000
O         14.97500       11.89700       -1.53400
N         13.00600       10.88800       -1.55600
H         12.34500       10.28600       -2.02700
H         12.80400       11.27600       -0.65100
