56
0 1
H         10.81000        9.30600        4.94000
C         11.21800       10.30600        4.80300
H         12.09000       10.26800        4.15400
H         11.50200       10.71900        5.77000
C         10.16800       11.19700        4.18100
O          9.78000       12.19500        4.77100
N          9.70600       10.82900        2.98700
H         10.08400        9.99300        2.56900
C          8.71200       11.58600        2.21500
H          8.21500       12.30500        2.86500
C          9.41400       12.40300        1.11700
H         10.10000       11.77100        0.55000
H          8.66300       12.78700        0.42900
C         10.17700       13.59300        1.71000
H          9.55700       14.06500        2.47300
H         11.08600       13.22900        2.18900
S         10.61300       14.85700        0.49000
C         11.47900       16.02800        1.56800
H         12.34100       15.53900        2.02300
H         11.81900       16.88000        0.97900
H         10.80500       16.37700        2.35000
C          7.62900       10.65200        1.64400
O          7.76000       10.18800        0.51000
N          6.56000       10.34300        2.40600
C          6.25900       10.86300        3.73500
H          6.34500       11.94900        3.77400
H          6.92600       10.40400        4.46600
C          4.81400       10.45700        4.02100
H          4.13500       11.21400        3.62400
H          4.64000       10.30500        5.08700
C          4.66200        9.16100        3.22700
H          3.61800        8.95300        2.98600
H          5.08800        8.33500        3.79900
C          5.51400        9.40700        1.97700
H          5.96900        8.46600        1.66600
C          4.66300        9.92100        0.80200
O          3.96300        9.13500        0.17400
N          4.72800       11.21800        0.48200
H          5.31900       11.81800        1.04400
C          4.09800       11.81100       -0.70200
H          3.13700       11.31200       -0.83900
C          3.79400       13.30400       -0.44100
H          2.98200       13.58300       -1.11400
H          3.41400       13.42200        0.57600
C          4.93300       14.31900       -0.67700
H          5.30300       14.23000       -1.69800
H          4.51400       15.32100       -0.58300
C          6.12100       14.23400        0.28100
O          6.22400       13.47900        1.24200
O          7.11600       15.09600       -0.00800
H          7.82900       14.95300        0.61600
C          4.88600       11.58100       -2.01100
O          4.47200       12.04200       -3.06700
N          6.03800       10.91800       -1.98200
H          6.52800       10.77700       -2.84800
H          6.39600       10.54400       -1.11400
