59
0 1
H          4.23400        7.24200        3.74500
C          3.67300        7.50500        2.85000
H          3.06500        8.38800        3.04000
H          3.03100        6.67400        2.56300
C          4.63700        7.79600        1.72500
O          4.61700        7.11500        0.70500
N          5.47400        8.81500        1.90900
H          5.40200        9.33800        2.76800
C          6.48900        9.23400        0.93600
H          6.03800        9.20100       -0.05800
C          6.94400       10.67800        1.20400
H          7.48600       10.71900        2.14900
H          7.63600       10.96300        0.41000
C          5.80200       11.70400        1.22800
H          6.22300       12.68800        1.01800
H          5.10600       11.46800        0.42200
S          4.86800       11.82800        2.78400
C          6.09400       12.61600        3.86500
H          6.95500       11.96100        3.99600
H          6.41600       13.56100        3.42700
H          5.64400       12.81000        4.83900
C          7.71000        8.30100        0.93800
O          8.25300        7.96500        1.98900
N          8.18200        7.93100       -0.25200
H          7.64700        8.21400       -1.06500
C          9.27500        6.97800       -0.48800
H          9.19900        6.18000        0.25200
C          9.11200        6.33600       -1.88800
H          9.02400        7.12300       -2.63900
H         10.01100        5.76100       -2.11400
C          7.91500        5.36900       -2.01600
H          7.88900        4.96100       -3.02500
H          8.06300        4.53900       -1.32400
C          6.56300        6.02100       -1.73000
O          6.23300        7.13600       -2.11800
O          5.76300        5.30500       -0.91800
H          5.10000        5.92200       -0.56400
C         10.65700        7.63400       -0.28000
O         11.46700        7.71600       -1.20100
N         10.91800        8.12600        0.93600
H         10.18400        8.03100        1.63000
C         12.13500        8.85500        1.33300
H         12.37400        9.55900        0.53400
C         11.86900        9.67600        2.61100
H         11.67300        8.99100        3.43900
H         12.76400       10.25000        2.85200
C         10.69300       10.65700        2.51100
H          9.76700       10.10000        2.37400
H         10.62400       11.17900        3.46500
S         10.83300       11.89900        1.19500
C          9.73400       13.18500        1.84400
H          9.69400       14.01500        1.13700
H          8.73200       12.78300        1.98400
H         10.11800       13.54700        2.79800
C         13.37700        7.94700        1.48800
O         14.04700        7.94000        2.51400
N         13.69700        7.13400        0.49100
H         13.14400        7.15200       -0.35600
H         14.50100        6.53900        0.59300
