59
0 1
H          5.27400        2.62600       14.48300
C          4.85900        3.34400       13.77700
H          5.65500        3.98300       13.39800
H          4.10000        3.94600       14.27100
C          4.23400        2.59300       12.62600
O          4.25900        1.36900       12.60200
N          3.66800        3.32700       11.67000
H          3.72800        4.32900       11.73800
C          3.12900        2.74500       10.43600
H          2.53600        1.87000       10.70800
C          2.19500        3.75500        9.74600
H          1.36000        3.97700       10.41200
H          2.74300        4.68000        9.56000
C          1.63600        3.25000        8.40900
H          0.97400        4.01500        8.00300
H          2.45900        3.12400        7.70500
S          0.71200        1.69100        8.51400
C          0.42700        1.39700        6.74800
H         -0.13700        2.22800        6.32400
H          1.38300        1.30800        6.23200
H         -0.13900        0.47500        6.62000
C          4.25600        2.27700        9.50200
O          5.22400        3.00300        9.27800
N          4.10700        1.08700        8.91600
H          3.26500        0.56600        9.10700
C          5.04000        0.55800        7.91800
H          6.04700        0.62000        8.33300
C          4.71900       -0.92300        7.65500
H          4.83100       -1.48100        8.58400
H          3.68000       -1.01100        7.33200
C          5.61100       -1.55700        6.57800
H          5.35300       -2.61400        6.49800
H          5.37900       -1.09400        5.61800
S          7.40200       -1.42300        6.84800
C          7.60500       -2.41600        8.35100
H          8.66400       -2.47700        8.60200
H          7.07100       -1.95100        9.18000
H          7.21700       -3.42100        8.18300
C          5.00500        1.39200        6.62700
O          3.93700        1.62400        6.06300
N          6.17300        1.82100        6.14600
H          7.02200        1.57400        6.63700
C          6.32100        2.66000        4.95500
H          5.57000        2.35600        4.22500
C          6.06600        4.12900        5.35700
H          5.06900        4.20300        5.79700
H          6.78700        4.41300        6.12600
C          6.15500        5.15400        4.21500
H          5.91600        6.14100        4.61200
H          7.17200        5.19000        3.82700
C          5.20000        4.83600        3.06800
O          5.42300        4.02300        2.18100
O          4.03300        5.50700        3.08100
H          3.54200        5.18700        2.32300
C          7.70900        2.45600        4.32200
O          8.69400        2.23900        5.01800
N          7.81900        2.53900        3.00300
H          8.72600        2.39800        2.59000
H          7.00700        2.75500        2.43800
