57
0 1
H          0.13700       10.11300       -1.00500
C          1.12400        9.90100       -1.41400
H          1.59100        9.10200       -0.84100
H          1.73700       10.79900       -1.37300
C          0.97300        9.46000       -2.85000
O         -0.13800        9.38900       -3.36000
N          2.09400        9.16700       -3.50600
H          2.96500        9.20200       -3.00400
C          2.09500        8.62200       -4.86900
H          1.40600        9.22100       -5.46200
C          3.49600        8.72100       -5.49300
H          4.22600        8.29100       -4.80500
H          3.52400        8.13700       -6.41300
C          3.89900       10.16600       -5.81200
H          3.83400       10.75800       -4.89900
H          4.94100       10.17000       -6.13300
S          2.90900       10.98900       -7.09500
C          3.40400       10.05800       -8.57200
H          3.09500        9.01700       -8.47900
H          2.92500       10.49400       -9.44900
H          4.48600       10.10900       -8.69200
C          1.62400        7.15500       -4.89300
O          2.04000        6.37800       -4.03000
N          0.82200        6.73500       -5.89200
C          0.26200        7.54300       -6.96700
H          1.01400        8.19200       -7.41500
H         -0.56600        8.13700       -6.57700
C         -0.25500        6.55200       -8.01100
H          0.54400        6.31100       -8.71400
H         -1.12600        6.94000       -8.53900
C         -0.59800        5.31900       -7.17500
H         -0.57500        4.40500       -7.77100
H         -1.58100        5.45100       -6.71900
C          0.47500        5.32900       -6.08200
H          0.05700        4.92400       -5.16000
C          1.71000        4.50300       -6.47700
O          2.57100        4.96600       -7.22600
N          1.78100        3.26000       -5.99600
H          1.03900        2.92300       -5.39800
C          2.89500        2.34000       -6.24200
H          3.25700        2.50400       -7.25800
C          4.03400        2.66400       -5.25500
H          4.29700        3.71800       -5.35200
H          3.67700        2.50700       -4.23600
C          5.30500        1.82900       -5.45900
H          6.07800        2.22000       -4.79600
H          5.10200        0.80400       -5.14700
S          5.97200        1.78500       -7.15000
C          6.27900        3.55000       -7.44300
H          6.93200        3.94500       -6.66400
H          6.76000        3.67700       -8.41300
H          5.33600        4.09800       -7.44100
C          2.43100        0.87800       -6.14100
O          1.48100        0.56700       -5.43200
N          3.08400       -0.04000       -6.84000
H          2.77700       -0.99600       -6.77400
H          3.88000        0.22300       -7.40000
