66
0 1
H          5.38200        7.25200       -5.08400
C          6.25900        7.59100       -4.53900
H          6.78500        8.34500       -5.12200
H          6.91700        6.74400       -4.35000
C          5.84400        8.19400       -3.22000
O          6.53300        8.02300       -2.22300
N          4.70700        8.88700       -3.19900
H          4.16100        8.92500       -4.04800
C          4.22700        9.67800       -2.05200
H          5.02200       10.37700       -1.78600
C          3.00300       10.51400       -2.47500
H          2.79800       11.23400       -1.68100
H          3.24400       11.08200       -3.37500
C          1.71700        9.70800       -2.71900
H          1.51000        9.08700       -1.84700
H          0.89500       10.41800       -2.81400
S          1.71300        8.66300       -4.20300
C          0.07100        7.91300       -4.04300
H         -0.10000        7.23000       -4.87600
H          0.00800        7.36000       -3.10500
H         -0.69100        8.69300       -4.05600
C          3.92900        8.87200       -0.77200
O          3.72400        9.46300        0.28300
N          3.91500        7.53900       -0.83900
H          4.10500        7.11100       -1.73300
C          3.84700        6.65700        0.33400
H          3.10200        7.04300        1.03200
C          3.40500        5.26200       -0.12700
H          3.37000        4.59600        0.73700
H          2.39000        5.33300       -0.52100
C          4.27600        4.64700       -1.18000
C          5.39700        3.93100       -0.94500
H          5.78400        3.69500        0.04100
N          5.99300        3.59600       -2.14500
H          6.88700        3.12000       -2.20200
C          5.27200        4.06600       -3.22100
C          5.45500        3.98400       -4.60900
H          6.30400        3.45500       -5.01600
C          4.51100        4.58600       -5.45900
H          4.62900        4.52100       -6.53200
C          3.41100        5.27200       -4.91200
H          2.68500        5.73200       -5.56900
C          3.24400        5.35800       -3.51500
H          2.38800        5.87500       -3.10900
C          4.16600        4.75100       -2.63400
C          5.17600        6.56200        1.10900
O          5.17700        6.09500        2.24400
N          6.30400        6.99100        0.52900
H          6.24100        7.38000       -0.40600
C          7.64000        6.96000        1.14900
H          7.72500        6.03000        1.71100
C          8.73100        6.95500        0.05500
H          8.66700        7.89000       -0.50200
H          9.71200        6.92200        0.53200
C          8.64700        5.78600       -0.94600
H          7.66900        5.76900       -1.42100
H          9.38500        5.95300       -1.73000
C          8.92400        4.41400       -0.33100
O          9.22600        4.18700        0.82900
O          8.81800        3.36800       -1.17700
H          9.08700        2.62100       -0.63700
C          7.85200        8.09300        2.18100
O          8.87300        8.77300        2.19300
N          6.88200        8.35100        3.04800
H          7.01000        9.10100        3.70600
H          6.05500        7.77100        3.05000
