59
0 1
H          7.71500        4.52600        3.43000
C          8.54100        5.11000        3.83400
H          9.42500        4.96500        3.21600
H          8.74400        4.79500        4.85500
C          8.16100        6.57200        3.82400
O          7.07200        6.92300        3.38000
N          9.06100        7.42700        4.30900
H          9.94700        7.06700        4.62000
C          8.86300        8.88100        4.29700
H          7.91300        9.08900        4.79100
C          9.97800        9.57700        5.09600
H          9.95900        9.21400        6.12500
H         10.94500        9.32400        4.65800
C          9.83400       11.10400        5.11000
H         10.65500       11.52100        5.69500
H          9.93000       11.48500        4.09200
S          8.27200       11.70100        5.81400
C          8.47300       13.47900        5.52400
H          7.59200       14.00800        5.88900
H          9.35600       13.84000        6.05200
H          8.58700       13.66700        4.45700
C          8.77500        9.41700        2.86000
O          9.62000        9.09600        2.02400
N          7.76200       10.24200        2.59100
H          7.16700       10.52000        3.35600
C          7.47100       10.81400        1.27300
H          7.84300       10.13300        0.50400
C          5.94700       10.94600        1.10000
H          5.56500       11.65700        1.83500
H          5.73700       11.34300        0.10600
C          5.19400        9.61200        1.26800
H          5.32200        9.23400        2.28200
H          4.12900        9.78700        1.11400
C          5.65100        8.56000        0.26300
O          5.52300        8.72500       -0.93600
N          6.20700        7.45200        0.69600
H          6.52500        6.81600       -0.01100
H          6.38000        7.29800        1.68500
C          8.17300       12.16600        1.06200
O          8.40700       12.91100        2.01300
N          8.50200       12.49400       -0.18900
H          8.28300       11.83900       -0.93200
C          9.28000       13.67900       -0.56500
H          8.97100       14.51000        0.07100
C         10.79000       13.43500       -0.32900
H         11.32900       14.32800       -0.64800
H         10.96500       13.32600        0.74200
C         11.40000       12.22200       -1.06400
H         11.13900       12.24900       -2.12200
H         12.48600       12.27700       -0.98000
C         10.95400       10.88900       -0.46900
O         10.18600       10.11100       -1.01300
O         11.38000       10.65900        0.78800
H         10.86000        9.89900        1.10800
C          9.00200       14.08700       -2.02100
O          8.65200       13.26400       -2.85700
N          9.17700       15.35800       -2.35900
H          8.99500       15.61900       -3.31500
H          9.46500       16.03500       -1.67400
