60
0 1
H          3.25400       12.87800       -7.94500
C          2.96200       13.92600       -7.94000
H          1.88800       14.01300       -8.09300
H          3.48900       14.45300       -8.73400
C          3.32800       14.54300       -6.61200
O          4.02200       15.55100       -6.56500
N          2.86900       13.92500       -5.52300
H          2.31500       13.09400       -5.65400
C          3.05500       14.42400       -4.14800
H          2.61300       15.41900       -4.08400
C          2.29300       13.48900       -3.19200
H          1.28600       13.32500       -3.57900
H          2.79900       12.52200       -3.17300
C          2.16100       14.02500       -1.75800
H          2.75600       14.92900       -1.63100
H          1.12000       14.30600       -1.59900
S          2.62600       12.84900       -0.45600
C          4.43200       12.87300       -0.62400
H          4.72000       12.50000       -1.60700
H          4.79800       13.89300       -0.50200
H          4.87500       12.23900        0.14400
C          4.53500       14.55700       -3.73300
O          4.86700       15.36100       -2.86600
N          5.44100       13.81700       -4.37900
H          5.12600       13.23600       -5.14500
C          6.89400       13.91600       -4.18400
H          7.12700       13.77400       -3.12800
C          7.56600       12.80200       -4.99800
H          8.64000       12.81600       -4.80300
H          7.18100       11.83500       -4.67200
C          7.33500       12.93800       -6.48400
N          6.14000       12.64400       -7.14500
C          6.34300       12.98600       -8.42700
H          5.60600       12.88800       -9.21400
N          7.57900       13.48500       -8.59500
H          7.95400       13.84500       -9.46300
C          8.21900       13.46900       -7.37600
H          9.21100       13.83600       -7.14900
C          7.48000       15.28100       -4.58600
O          8.59900       15.59000       -4.19100
N          6.74700       16.09400       -5.35500
H          5.84300       15.76600       -5.67600
C          7.13700       17.46400       -5.71700
H          8.22000       17.49000       -5.84900
C          6.49100       17.85500       -7.05700
H          5.41400       17.95000       -6.91900
H          6.88600       18.82300       -7.37000
C          6.77300       16.82900       -8.16500
H          7.84500       16.62800       -8.17900
H          6.26100       15.89900       -7.92200
S          6.28000       17.31800       -9.84200
C          4.50000       17.56800       -9.60900
H          4.33100       18.42400       -8.95600
H          4.03100       17.76000      -10.57400
H          4.05800       16.68000       -9.16000
C          6.80400       18.50300       -4.62700
O          7.10000       19.68200       -4.78500
N          6.17700       18.11900       -3.52100
H          5.92300       17.15000       -3.38600
H          5.97600       18.81300       -2.82100
