64
0 1
H          1.94600        4.35900       -3.89100
C          1.97400        5.28900       -3.32500
H          1.02700        5.44100       -2.81100
H          2.16000        6.12100       -4.00200
C          3.09200        5.22200       -2.31200
O          4.00600        6.03500       -2.35000
N          3.01400        4.25200       -1.40300
H          2.25100        3.60000       -1.47400
C          4.06900        3.95900       -0.42600
H          4.50800        4.89900       -0.08700
C          3.44000        3.26700        0.79900
H          2.83200        3.99600        1.33500
H          2.77700        2.47200        0.45400
C          4.44100        2.63500        1.77900
H          3.88500        2.28600        2.65000
H          4.87500        1.75500        1.30300
S          5.81000        3.67600        2.36200
C          4.92300        5.05500        3.13200
H          5.64400        5.74000        3.57900
H          4.35000        5.59400        2.37800
H          4.25400        4.67900        3.90600
C          5.18700        3.11700       -1.05700
O          4.93400        2.02300       -1.55600
N          6.42400        3.61100       -0.98500
H          6.52900        4.55400       -0.62800
C          7.64600        2.91200       -1.42100
H          7.47800        1.83600       -1.35400
C          7.92600        3.26000       -2.89400
H          8.79300        2.69200       -3.23300
H          7.07700        2.93300       -3.49700
C          8.17400        4.73700       -3.15500
C          7.10100        5.57700       -3.51400
H          6.10700        5.16600       -3.62200
C          7.31500        6.95400       -3.71000
H          6.49000        7.60100       -3.96900
C          8.60600        7.49500       -3.54700
O          8.79700        8.83400       -3.68300
H          9.72100        9.04300       -3.82700
C          9.68700        6.65400       -3.20500
H         10.67600        7.06500       -3.07400
C          9.46800        5.27600       -3.01300
H         10.29200        4.63000       -2.73900
C          8.86300        3.22800       -0.52500
O          9.98600        2.82100       -0.81200
N          8.65300        3.98300        0.55500
H          7.69500        4.23800        0.75600
C          9.66700        4.73800        1.30100
H         10.39800        5.10500        0.58000
C          8.97700        5.96400        1.92900
H          8.33000        5.63100        2.74100
H          9.73400        6.62500        2.35300
C          8.13900        6.74800        0.94400
N          6.86700        6.38100        0.48600
C          6.54000        7.28400       -0.45100
H          5.62500        7.27100       -1.02800
N          7.53000        8.17800       -0.60700
H          7.55200        8.89600       -1.32100
C          8.55000        7.85400        0.25900
H          9.50900        8.34200        0.35400
C         10.47100        3.91200        2.32300
O         10.97200        4.44200        3.30700
N         10.60300        2.60800        2.12800
H         11.12500        2.07100        2.80000
H         10.24500        2.19900        1.27800
