59
0 1
H          3.94100        7.03500        0.41000
C          4.92800        7.14400        0.85500
H          5.05100        6.43200        1.66900
H          5.04900        8.15600        1.24200
C          5.98300        6.88300       -0.19100
O          6.75400        5.93600       -0.07500
N          6.03500        7.73100       -1.21700
H          5.42100        8.53400       -1.19500
C          6.91900        7.58100       -2.38500
H          6.67900        6.63100       -2.86500
C          6.63200        8.70300       -3.40300
H          7.25200        8.52500       -4.28300
H          5.58900        8.64700       -3.72000
C          6.92500       10.12400       -2.89500
H          7.89800       10.13600       -2.40500
H          6.98600       10.78900       -3.75700
S          5.67800       10.80800       -1.76400
C          6.66700       12.08900       -0.95000
H          7.04400       12.79300       -1.69300
H          6.04700       12.62200       -0.22900
H          7.50500       11.62700       -0.42600
C          8.41900        7.52500       -2.04300
O          9.19900        6.99700       -2.82600
N          8.82500        8.02400       -0.87300
H          8.13100        8.49200       -0.30000
C         10.19700        7.93100       -0.36100
H         10.86900        8.27200       -1.15000
C         10.36800        8.87900        0.84400
H         11.43200        8.91700        1.08500
H         10.07000        9.88900        0.55700
C          9.61500        8.46200        2.12600
H          9.84800        7.42800        2.37500
H          9.97300        9.07800        2.95000
C          8.10000        8.65200        2.04300
O          7.54800        9.43900        1.28200
O          7.38200        7.87500        2.88600
H          7.89300        7.09900        3.17000
C         10.64900        6.50200        0.00900
O         11.84700        6.29000        0.17600
N          9.73200        5.53900        0.19100
H          8.75200        5.77100        0.07500
C         10.08600        4.16600        0.59800
H         11.05600        3.92400        0.16000
C         10.24700        4.09900        2.12900
H         10.73200        3.15600        2.38300
H         10.91000        4.89900        2.45900
C          8.95600        4.18600        2.90700
N          8.37600        5.35100        3.42100
C          7.23800        4.95400        4.01800
H          6.54200        5.61700        4.51800
N          7.07700        3.62700        3.89800
H          6.29600        3.09400        4.25400
C          8.15100        3.12500        3.20100
H          8.33200        2.09500        2.91700
C          9.13200        3.06500        0.10100
O          9.39000        1.88600        0.31300
N          8.02400        3.38900       -0.55000
H          7.75700        4.35700       -0.65600
H          7.42400        2.64700       -0.86600
