64
0 1
H          9.07200       10.76400       -2.43600
C          8.95600       11.05600       -1.39300
H          8.37900       11.97700       -1.33900
H          9.93900       11.20200       -0.94900
C          8.22200        9.95300       -0.65100
O          7.86900        8.96000       -1.28000
N          7.98100       10.10100        0.66600
C          8.40200       11.23500        1.48000
H          8.03700       12.17700        1.06900
H          9.49100       11.24900        1.54600
C          7.80800       11.00600        2.87100
H          6.81500       11.45400        2.92700
H          8.45300       11.40000        3.65600
C          7.69400        9.48400        2.94000
H          6.96400        9.16100        3.68400
H          8.67200        9.05700        3.16900
C          7.30000        9.10900        1.50500
H          7.68800        8.11400        1.28100
C          5.77600        9.08700        1.26000
O          4.97700        9.42200        2.13400
N          5.36900        8.70600        0.04700
H          6.09100        8.44100       -0.61500
C          3.97700        8.68600       -0.42700
H          3.56900        9.69600       -0.37400
C          3.98600        8.23400       -1.89600
H          2.96400        8.27700       -2.27700
H          4.57900        8.94100       -2.47800
C          4.51700        6.84900       -2.13000
C          5.79000        6.54700       -2.47300
H          6.57500        7.27500       -2.64700
N          5.94600        5.17600       -2.52700
H          6.82400        4.72700       -2.74000
C          4.77700        4.51900       -2.21200
C          4.44200        3.16000       -2.10800
H          5.18400        2.40000       -2.29500
C          3.12800        2.80600       -1.75700
H          2.85100        1.76400       -1.67100
C          2.17200        3.81000       -1.52000
H          1.16100        3.53500       -1.25200
C          2.52000        5.17000       -1.63000
H          1.77500        5.93100       -1.44100
C          3.83400        5.56300       -1.97200
C          3.04800        7.78300        0.40000
O          1.83900        8.00000        0.41300
N          3.59700        6.78800        1.10100
H          4.60100        6.66700        1.03400
C          2.86000        5.86800        1.97300
H          1.91500        5.64200        1.47800
C          3.64600        4.54300        2.08200
H          2.93800        3.75200        2.33400
H          4.06300        4.29700        1.10400
C          4.77500        4.50200        3.13100
H          4.32600        4.46400        4.12400
H          5.34400        3.58200        3.00000
C          5.74500        5.68000        3.06700
O          6.23200        6.08000        2.02300
N          6.05300        6.29900        4.18400
H          5.63200        6.01900        5.05200
H          6.66100        7.09200        4.10200
C          2.49700        6.47300        3.34900
O          1.95900        5.78700        4.21000
N          2.82100        7.73300        3.61700
H          3.29800        8.29400        2.92300
H          2.56000        8.11700        4.50900
