64
0 1
H          6.60000       -1.07700       10.70100
C          6.35500       -0.24100       11.35000
H          6.53500       -0.51000       12.38800
H          5.30600        0.01900       11.21700
C          7.20800        0.95800       10.98700
O          6.65600        2.04100       10.82500
N          8.53900        0.80800       10.84200
C          9.28800       -0.42200       11.05600
H          9.28500       -1.01300       10.13900
H          8.88300       -1.00800       11.88200
C         10.71300        0.01900       11.38300
H         11.44800       -0.73200       11.08900
H         10.79400        0.24400       12.44800
C         10.85600        1.30500       10.57200
H         11.08400        1.05400        9.53400
H         11.62500        1.96000       10.98300
C          9.46400        1.93700       10.66900
H          9.41900        2.55200       11.57000
C          9.18300        2.84500        9.46200
O          9.49900        4.03000        9.50400
N          8.54800        2.32100        8.40900
H          8.26600        1.35400        8.46400
C          8.09100        3.08400        7.23600
H          8.92600        3.66000        6.83500
C          7.62900        2.07600        6.17500
H          7.25200        2.61800        5.30600
H          8.49000        1.49200        5.84700
C          6.57100        1.13000        6.65800
C          5.25600        1.42000        6.71800
H          4.81900        2.35300        6.38900
N          4.57600        0.40100        7.35100
H          3.59800        0.47900        7.60300
C          5.42000       -0.63500        7.68700
C          5.21700       -1.87600        8.30900
H          4.22500       -2.17600        8.61100
C          6.31800       -2.72300        8.52100
H          6.17700       -3.69000        8.98600
C          7.60600       -2.31100        8.13000
H          8.44900       -2.97000        8.29000
C          7.80100       -1.05800        7.51500
H          8.79100       -0.76400        7.19800
C          6.71200       -0.19300        7.26700
C          6.96300        4.09300        7.54800
O          6.68400        4.96900        6.73300
N          6.32300        3.98700        8.71700
H          6.56500        3.20400        9.31400
C          5.34100        4.93400        9.26500
H          5.22300        5.76900        8.57500
C          3.97600        4.22900        9.40700
H          4.10100        3.33300       10.01800
H          3.28900        4.89200        9.93300
C          3.30300        3.84300        8.10800
N          2.38600        2.79800        7.95400
C          1.94300        2.87300        6.69100
H          1.20500        2.20800        6.26000
N          2.53400        3.89200        6.04500
H          2.35400        4.16700        5.09000
C          3.38600        4.52200        6.92500
H          3.99100        5.39800        6.73000
C          5.81500        5.57600       10.58400
O          5.04600        6.23400       11.27400
N          7.07900        5.42500       10.96200
H          7.37300        5.85300       11.82300
H          7.72800        4.91700       10.37900
