57
0 1
H         -1.20000        3.21300        1.55200
C         -0.99400        4.26600        1.73200
H         -1.16500        4.49800        2.78200
H         -1.64600        4.87000        1.10500
C          0.45500        4.55700        1.38300
O          1.14600        3.64000        0.94800
N          0.94400        5.79900        1.57300
C          0.19500        6.94600        2.06700
H          0.20700        6.94100        3.15800
H         -0.83300        6.95400        1.70200
C          0.93800        8.17200        1.54200
H          0.79600        9.03900        2.18900
H          0.61400        8.39100        0.52300
C          2.38900        7.69800        1.53300
H          2.80300        7.78700        2.53900
H          2.99400        8.26300        0.82200
C          2.28000        6.22200        1.13400
H          2.32200        6.14600        0.04600
C          3.45100        5.41400        1.71400
O          4.49500        5.31000        1.07600
N          3.28100        4.79800        2.88900
H          2.37900        4.87700        3.34600
C          4.28200        3.91500        3.50600
H          5.22500        4.46300        3.53600
C          3.87600        3.60700        4.96400
H          4.77100        3.28900        5.50000
H          3.52700        4.52600        5.44000
C          2.81200        2.50600        5.15000
H          3.23300        1.55000        4.83900
H          2.57000        2.42400        6.20900
C          1.51800        2.76200        4.38400
O          0.99400        3.86400        4.33900
N          0.97400        1.77000        3.71500
H          1.40900        0.86400        3.69300
H          0.16800        1.99100        3.16000
C          4.55000        2.62500        2.70400
O          5.51100        1.92200        2.99600
N          3.71200        2.30200        1.71200
H          2.91800        2.90800        1.53400
C          3.91800        1.18000        0.78700
H          4.28300        0.32900        1.36400
C          2.55700        0.80800        0.16900
H          1.77000        0.92200        0.91500
H          2.34100        1.49000       -0.65500
C          2.49900       -0.63500       -0.34300
H          1.59400       -0.75100       -0.94000
H          3.35200       -0.82900       -0.99300
S          2.46200       -1.87900        0.97800
C          2.63400       -3.37900       -0.02300
H          1.80400       -3.44900       -0.72600
H          3.57500       -3.34400       -0.57300
H          2.63100       -4.25300        0.62900
C          4.97500        1.47800       -0.30000
O          5.36700        0.59500       -1.05300
N          5.45300        2.71200       -0.42600
H          5.13600        3.45100        0.18600
H          6.14900        2.88300       -1.13100
