59
0 1
H          8.21500       -4.03900       -0.43200
C          9.18700       -4.32000       -0.03300
H          9.53900       -5.21800       -0.53900
H          9.11200       -4.51300        1.03500
C         10.18000       -3.19800       -0.27700
O         11.18200       -3.43300       -0.94500
N          9.93300       -1.98100        0.24400
C          8.75600       -1.60800        1.01900
H          8.61700       -2.26900        1.87600
H          7.87500       -1.63600        0.37600
C          8.99800       -0.17500        1.49500
H          9.51100       -0.18700        2.45800
H          8.06800        0.39100        1.56300
C          9.92700        0.38600        0.41900
H         10.50000        1.24300        0.77200
H          9.33700        0.66900       -0.45400
C         10.80800       -0.82000        0.06600
H         11.10700       -0.74100       -0.98000
C         12.08800       -0.93300        0.91900
O         12.25600       -0.24200        1.92400
N         13.00200       -1.82200        0.52000
H         12.75500       -2.40600       -0.27300
C         14.29400       -2.07300        1.17100
H         14.11500       -2.08800        2.24600
C         14.78200       -3.47600        0.74800
H         13.97400       -4.18900        0.91800
H         14.98700       -3.45900       -0.32400
C         16.04100       -3.98900        1.47800
H         16.88100       -3.32000        1.30400
C         15.82700       -4.11900        2.98900
H         16.70900       -4.56700        3.44600
H         15.68000       -3.13600        3.43300
H         14.96000       -4.74700        3.19300
C         16.41400       -5.37000        0.93600
H         17.32200       -5.72500        1.42300
H         15.60600       -6.07800        1.11700
H         16.60000       -5.30200       -0.13600
C         15.30300       -0.93600        0.89800
O         16.29900       -1.10600        0.19900
N         15.01600        0.25200        1.43300
H         14.14400        0.31200        1.94900
C         15.77900        1.49800        1.24900
H         16.07500        1.56000        0.20000
C         14.86600        2.70300        1.54700
H         14.52500        2.63800        2.58000
H         15.43500        3.62700        1.42800
C         13.65300        2.76700        0.60600
H         14.01900        2.89200       -0.41300
H         13.10800        1.82600        0.64900
S         12.47300        4.10200        0.94700
C         11.82200        3.57500        2.55600
H         11.47100        2.54500        2.49500
H         12.60300        3.64700        3.31300
H         10.99300        4.22400        2.84000
C         17.08800        1.53400        2.06900
O         17.35600        2.46600        2.81600
N         17.91600        0.50300        1.97600
H         18.76600        0.51700        2.51400
H         17.68900       -0.25700        1.34800
