71
0 1
H         14.12100       -2.23600       -9.13500
C         14.16000       -1.19600       -8.81900
H         15.14100       -0.78200       -9.04500
H         13.98500       -1.12700       -7.74900
C         13.10200       -0.40200       -9.56000
O         13.46900        0.42200      -10.39000
N         11.80300       -0.63600       -9.29700
C         11.30400       -1.69600       -8.42800
H         11.56700       -1.50800       -7.38600
H         11.71000       -2.65500       -8.75200
C          9.78400       -1.70600       -8.59800
H          9.32200       -1.07700       -7.83500
H          9.38000       -2.71800       -8.55700
C          9.58900       -1.07400       -9.97700
H          8.58600       -0.66300      -10.09800
H          9.78600       -1.81700      -10.75100
C         10.68400       -0.00000      -10.00600
H         10.96000        0.20700      -11.04000
C         10.18200        1.31700       -9.37300
O          9.16600        1.85300       -9.80500
N         10.82800        1.80800       -8.31300
H         11.70400        1.37600       -8.06300
C         10.34500        2.85900       -7.40000
H          9.28500        2.68200       -7.21400
C         11.08300        2.68200       -6.05900
H         10.90500        3.54500       -5.41600
H         10.64100        1.82400       -5.55400
C         12.56300        2.43400       -6.15500
C         13.47100        3.28600       -6.68200
H         13.24500        4.27000       -7.08300
N         14.72200        2.70800       -6.66300
H         15.53800        3.17200       -7.03500
C         14.69100        1.44700       -6.11000
C         15.68000        0.48100       -5.86900
H         16.70900        0.67800       -6.13100
C         15.31500       -0.73600       -5.26900
H         16.06600       -1.48700       -5.06500
C         13.97000       -0.97500       -4.93100
H         13.69500       -1.91000       -4.46200
C         12.98400       -0.00000       -5.18600
H         11.95800       -0.19000       -4.90700
C         13.31800        1.23900       -5.77700
C         10.42000        4.29900       -7.96100
O         10.99500        5.19300       -7.34000
N          9.82900        4.54500       -9.13300
H          9.33900        3.77900       -9.58500
C          9.92700        5.82000       -9.85900
H         10.39900        6.55600       -9.20900
C         10.83400        5.64500      -11.08500
H         10.26400        5.13300      -11.86300
H         11.10200        6.62900      -11.46900
C         12.09400        4.86800      -10.84500
C         12.29600        3.59500      -11.24700
H         11.57700        2.99700      -11.79300
N         13.53000        3.16100      -10.81400
H         13.82800        2.19000      -10.89900
C         14.20100        4.13900      -10.11700
C         15.45900        4.17700       -9.49700
H         16.11400        3.32000       -9.55300
C         15.84900        5.34300       -8.81700
H         16.81800        5.39900       -8.34000
C         14.97300        6.44300       -8.75900
H         15.27000        7.33600       -8.22600
C         13.71400        6.39300       -9.39100
H         13.05000        7.24100       -9.33200
C         13.29700        5.24400      -10.09900
C          8.55500        6.38200      -10.25500
O          7.58700        5.65600      -10.44400
N          8.44900        7.69500      -10.41700
H          7.55200        8.06400      -10.68400
H          9.24400        8.29200      -10.26700
