59
0 1
H          3.42300        7.83500        3.27000
C          3.91600        8.31700        2.42800
H          3.83300        9.39900        2.51700
H          3.44300        7.99600        1.50100
C          5.38100        7.92100        2.40100
O          5.79200        7.28300        1.43500
N          6.16800        8.25500        3.44200
C          5.71800        8.95500        4.64000
H          4.87000        8.44900        5.10300
H          5.45000        9.98000        4.38200
C          6.90800        8.96300        5.59800
H          6.91300        8.04800        6.19200
H          6.90300        9.84300        6.24300
C          8.09700        8.96500        4.64200
H          9.01200        8.62600        5.13000
H          8.24200        9.97200        4.24700
C          7.62400        8.03900        3.51200
H          8.07400        8.38300        2.58200
C          8.05200        6.56600        3.71600
O          9.12200        6.28800        4.25300
N          7.22000        5.59900        3.31200
H          6.41300        5.89100        2.77900
C          7.41700        4.15500        3.52100
H          7.61600        3.99600        4.58200
C          6.08500        3.46600        3.15300
H          5.28900        3.93600        3.73500
H          5.88300        3.66000        2.09800
C          6.00600        1.94300        3.38000
H          6.72100        1.43200        2.73800
C          6.26100        1.55400        4.83800
H          6.12000        0.48100        4.96200
H          7.29000        1.79000        5.10700
H          5.57800        2.08800        5.49900
C          4.60700        1.45100        3.00200
H          4.55500        0.36900        3.12100
H          3.85600        1.91900        3.64000
H          4.40100        1.69500        1.96000
C          8.62500        3.56900        2.75400
O          9.04900        2.44900        3.02200
N          9.18300        4.32900        1.81000
H          8.81800        5.26800        1.71300
C         10.36900        3.99800        1.01100
H         10.58800        2.93800        1.15200
C         10.05600        4.20000       -0.48900
H         10.85500        3.73300       -1.06700
H          9.13300        3.66800       -0.72800
C          9.92400        5.66100       -0.96700
H         10.87500        6.17600       -0.82800
H          9.69900        5.66300       -2.03300
C          8.83800        6.43300       -0.22900
O          9.08100        7.06700        0.78100
N          7.58800        6.33300       -0.62000
H          6.90000        6.80100       -0.03500
H          7.33700        5.79900       -1.43000
C         11.63700        4.75400        1.46600
O         12.67800        4.65800        0.82700
N         11.58700        5.52500        2.54700
H         12.41900        6.01700        2.82200
H         10.72600        5.62300        3.07000
