56
0 1
H          4.68300        8.74300        2.46100
C          5.66400        8.95300        2.03900
H          5.57800        9.70100        1.25200
H          6.08500        8.03800        1.62500
C          6.58400        9.47100        3.12900
O          7.58700        8.82300        3.41600
N          6.27500       10.62000        3.75700
C          5.05100       11.38900        3.58200
H          4.16800       10.74900        3.59100
H          5.10400       11.94800        2.64600
C          5.00600       12.35700        4.76200
H          4.55100       11.86600        5.62400
H          4.47100       13.27500        4.51400
C          6.48600       12.61800        5.03800
H          6.65500       12.95200        6.06300
H          6.86000       13.36200        4.33400
C          7.14800       11.26500        4.74600
H          8.13100       11.43800        4.30700
C          7.35600       10.44900        6.03500
O          8.25700       10.75100        6.80800
N          6.55500        9.40600        6.26400
H          5.84400        9.18800        5.57600
C          6.71300        8.44000        7.35700
H          6.94300        8.97400        8.28100
C          5.37300        7.70400        7.51800
H          5.42300        7.06300        8.40000
H          4.57400        8.42900        7.67400
C          5.04000        6.85800        6.31400
N          4.70900        7.34700        5.04600
C          4.68700        6.27400        4.23900
H          4.50000        6.30800        3.17400
N          4.99000        5.16000        4.92500
H          5.18100        4.25000        4.51200
C          5.21000        5.50900        6.23800
H          5.54000        4.86500        7.04100
C          7.85000        7.42500        7.12700
O          8.20500        6.70700        8.05800
N          8.39600        7.32700        5.90700
H          8.01100        7.91500        5.17900
C          9.45100        6.37100        5.52500
H          9.98300        6.05100        6.42400
C          8.80500        5.13000        4.87300
H          7.92000        5.43900        4.31300
H          9.50400        4.67800        4.16700
C          8.43300        4.05600        5.90900
H          9.34900        3.61700        6.30500
H          7.89600        4.50900        6.73800
C          7.55200        2.94300        5.34500
O          6.81500        3.02600        4.36900
O          7.57200        1.79500        6.04800
H          6.99500        1.19000        5.58300
C         10.53500        6.96200        4.60100
O         11.59600        6.37100        4.44400
N         10.32800        8.11700        3.98200
H          9.43000        8.57500        4.04300
H         11.06100        8.48000        3.39800
