55
0 1
H         -4.42000       -0.59200        1.06400
C         -4.48900       -1.67800        1.04500
H         -5.29500       -1.99400        0.38600
H         -4.68200       -2.03800        2.05500
C         -3.17100       -2.25100        0.55800
O         -2.55800       -3.02300        1.29200
N         -2.71900       -1.90700       -0.66000
C         -3.46500       -1.14700       -1.65600
H         -3.65300       -0.12900       -1.31300
H         -4.40700       -1.65300       -1.87000
C         -2.60200       -1.12600       -2.92000
H         -2.01600       -0.20700       -2.95000
H         -3.20800       -1.21900       -3.82200
C         -1.67600       -2.33100       -2.73700
H         -0.74800       -2.22700       -3.30100
H         -2.19900       -3.23800       -3.04300
C         -1.44800       -2.36600       -1.22000
H         -1.24900       -3.39500       -0.91900
C         -0.26800       -1.48500       -0.76200
O          0.18900       -0.60900       -1.49100
N          0.27200       -1.72300        0.44000
H         -0.16700       -2.41500        1.03500
C          1.46900       -1.00600        0.93500
H          1.33100        0.05800        0.73700
C          1.64200       -1.18100        2.46000
H          1.68600       -2.24300        2.70500
H          2.59900       -0.74400        2.74800
C          0.56100       -0.48100        3.30900
H          0.84200       -0.56300        4.35900
H          0.51900        0.57500        3.04500
C         -0.82600       -1.08900        3.14800
O         -1.82900       -0.46200        2.84200
O         -0.86700       -2.43300        3.25400
H         -1.72200       -2.70200        2.88100
C          2.76900       -1.40700        0.20000
O          3.81200       -0.79600        0.41600
N          2.71800       -2.42900       -0.65900
H          1.81700       -2.85100       -0.82400
C          3.79000       -2.85600       -1.56000
H          4.41800       -1.99600       -1.79600
C          4.64700       -3.96300       -0.91000
H          3.98600       -4.74000       -0.52200
H          5.27400       -4.42000       -1.67700
C          5.56800       -3.48300        0.22500
H          4.97900       -3.03700        1.02400
H          6.08400       -4.34600        0.64500
C          6.62900       -2.48500       -0.23700
O          6.87400       -2.19200       -1.40100
O          7.36800       -1.94500        0.75000
H          7.95200       -1.32400        0.31400
C          3.18600       -3.35500       -2.88100
O          2.05700       -3.83700       -2.91700
N          3.93200       -3.27200       -3.97400
H          4.85700       -2.87500       -3.92600
H          3.54200       -3.59600       -4.84300
