56
0 1
H          9.39100        5.53300       -3.24000
C          9.46500        5.10100       -2.24400
H          9.40500        5.89400       -1.50000
H         10.41200        4.57500       -2.15200
C          8.32100        4.12400       -2.03700
O          7.55000        3.93200       -2.97700
N          8.18600        3.51000       -0.84300
C          9.04000        3.72400        0.31900
H          8.66100        4.57200        0.89200
H         10.08000        3.89500        0.04100
C          8.93400        2.44900        1.15000
H          9.10900        2.63900        2.20900
H          9.63200        1.70100        0.76900
C          7.50000        2.00200        0.88200
H          6.82100        2.56700        1.52200
H          7.37300        0.93100        1.04500
C          7.28000        2.37800       -0.58800
H          7.60000        1.54500       -1.21300
C          5.78800        2.62200       -0.86300
O          5.04500        1.66600       -1.05800
N          5.34800        3.88100       -0.91000
H          6.00800        4.62000       -0.69500
C          4.04100        4.27900       -1.44800
H          3.74900        3.53900       -2.19400
C          2.95300        4.25900       -0.35400
H          2.02000        4.60400       -0.80200
H          2.78700        3.22800       -0.03800
C          3.24900        5.13400        0.87700
H          3.77900        6.03800        0.58400
H          2.29700        5.42900        1.32000
C          4.04100        4.39100        1.95100
O          5.19600        4.63200        2.27300
O          3.38300        3.39000        2.56700
H          4.00600        3.00700        3.18200
C          4.15800        5.60900       -2.21500
O          3.30400        6.48700       -2.11200
N          5.26200        5.76800       -2.95500
H          5.93200        5.00700       -2.95700
C          5.66900        7.02900       -3.59300
H          4.80000        7.68500       -3.67500
C          6.72600        7.73500       -2.72300
H          7.69900        7.29100       -2.92900
H          6.78000        8.78300       -3.02100
C          6.50700        7.66000       -1.23000
N          6.96200        6.63000       -0.40000
C          6.57900        6.96400        0.84000
H          6.79200        6.38100        1.72700
N          5.88900        8.11700        0.82500
H          5.48600        8.56700        1.63500
C          5.83200        8.57100       -0.47400
H          5.35000        9.46900       -0.83700
C          6.21800        6.84500       -5.01500
O          6.21100        7.78000       -5.80300
N          6.70100        5.66200       -5.37700
H          6.75600        4.90700       -4.70800
H          7.04800        5.55700       -6.31500
