60
0 1
H          2.09900        9.33300       -2.79900
C          2.88000        9.99300       -2.42300
H          2.43200       10.76300       -1.80000
H          3.39700       10.45400       -3.26200
C          3.87100        9.17900       -1.61100
O          3.70800        7.96400       -1.53800
N          4.88500        9.81100       -0.99000
C          5.05600       11.25700       -0.93000
H          4.16300       11.74800       -0.54300
H          5.29600       11.63600       -1.92500
C          6.23400       11.50100        0.01100
H          5.88100       11.54400        1.04200
H          6.78000       12.40900       -0.25000
C          7.08300       10.24800       -0.19400
H          7.76700       10.08200        0.63900
H          7.64600       10.34000       -1.12400
C          6.02800        9.14300       -0.34500
H          6.41900        8.38000       -1.01900
C          5.71200        8.44400        0.99600
O          6.61800        8.12000        1.76200
N          4.43500        8.20400        1.30600
H          3.74700        8.42800        0.60300
C          3.92300        7.70000        2.59300
H          4.38000        8.29900        3.38100
C          2.40400        7.93900        2.63900
H          1.91600        7.17800        2.02900
H          2.05600        7.80800        3.66500
C          1.97200        9.31300        2.15300
C          1.23300        9.43900        0.96000
H          0.93900        8.55700        0.40700
C          0.86600       10.71500        0.49100
H          0.28600       10.82300       -0.41300
C          1.25000       11.86800        1.20500
O          0.90800       13.09500        0.73500
H          1.06300       13.78500        1.38100
C          1.99500       11.74300        2.39900
H          2.29000       12.62300        2.94900
C          2.35100       10.46500        2.87100
H          2.92000       10.36500        3.78500
C          4.27200        6.22800        2.91400
O          3.68500        5.63100        3.81200
N          5.20900        5.63900        2.17200
H          5.65500        6.21700        1.47000
C          5.64900        4.24300        2.25500
H          5.42200        3.87700        3.25800
C          4.84200        3.38700        1.25200
H          5.00400        2.33700        1.49900
H          3.77900        3.59000        1.39000
C          5.19700        3.57800       -0.23700
H          6.23100        3.27900       -0.41100
H          4.55900        2.92600       -0.83300
C          5.01700        5.01300       -0.72300
O          5.89600        5.86400       -0.70100
O          3.76800        5.33400       -1.11500
H          3.78100        6.27900       -1.35400
C          7.17500        4.09100        2.07400
O          7.68300        2.98100        1.97600
N          7.93600        5.17900        2.00200
H          7.52500        6.10000        2.06800
H          8.92600        5.06000        1.86900
