55
0 1
H          1.40800       -2.25000       -3.84200
C          1.98900       -2.00400       -4.72900
H          1.39200       -2.19000       -5.61800
H          2.88800       -2.61700       -4.77600
C          2.38200       -0.53900       -4.69200
O          1.93100        0.22200       -5.54500
N          3.22700       -0.11100       -3.73600
C          3.77100       -0.91200       -2.64800
H          4.67000       -1.42600       -2.99200
H          3.04600       -1.63300       -2.26900
C          4.12900        0.08700       -1.55100
H          4.94300       -0.27500       -0.92200
H          3.24500        0.30800       -0.95000
C          4.53200        1.32500       -2.35000
H          5.56400        1.21400       -2.68900
H          4.42000        2.23900       -1.76500
C          3.57700        1.30100       -3.54900
H          2.66900        1.84600       -3.28900
C          4.21100        1.98200       -4.77100
O          4.10500        3.19700       -4.91200
N          4.83500        1.22300       -5.67900
H          4.80200        0.21700       -5.57100
C          5.44200        1.75800       -6.90400
H          6.03100        2.62900       -6.61200
C          6.42700        0.72600       -7.50100
H          7.21200        1.28100       -8.01600
H          6.90700        0.17600       -6.68900
C          5.84800       -0.28000       -8.51600
H          5.58000        0.25600       -9.42700
H          6.61900       -1.00300       -8.78200
C          4.62500       -1.04600       -8.02100
O          4.40700       -1.33700       -6.85100
O          3.75900       -1.37100       -9.00000
H          2.91700       -1.64700       -8.59600
C          4.41000        2.26500       -7.93300
O          4.79600        2.95600       -8.86900
N          3.11900        1.93500       -7.77200
H          2.86600        1.34200       -6.98900
C          2.02300        2.48700       -8.58300
H          2.46400        2.96900       -9.45700
C          1.13400        1.35200       -9.13000
H          0.55600        1.76000       -9.96100
H          1.77500        0.58000       -9.55700
C          0.13000        0.74000       -8.12800
H          0.22100        1.21700       -7.15400
H         -0.87800        0.95200       -8.48400
C          0.25200       -0.77300       -7.92800
O          1.20800       -1.48100       -8.23000
O         -0.82300       -1.35200       -7.35800
H         -0.61700       -2.28500       -7.31000
C          1.23300        3.60200       -7.86200
O          0.16400        3.99800       -8.31000
N          1.70800        4.11100       -6.73000
H          2.58700        3.79000       -6.34800
H          1.17900        4.83500       -6.27400
