58
0 1
H          5.11200        7.47500        2.19300
C          5.03300        8.33600        1.53300
H          6.01500        8.61100        1.15400
H          4.60900        9.17400        2.08500
C          4.11700        7.99900        0.37100
O          3.15000        8.72500        0.15500
N          4.38700        6.92000       -0.38800
C          5.55900        6.06400       -0.28800
H          5.39800        5.32100        0.49500
H          6.46500        6.63600       -0.08700
C          5.66600        5.37400       -1.64600
H          6.17100        4.41000       -1.57200
H          6.18200        6.02800       -2.35100
C          4.20300        5.22200       -2.05700
H          3.78900        4.33400       -1.57700
H          4.09400        5.15000       -3.14000
C          3.54400        6.49400       -1.50500
H          3.59200        7.25800       -2.27600
C          2.09200        6.24000       -1.05500
O          1.86100        5.41600       -0.17200
N          1.06400        6.91200       -1.58000
H          0.16200        6.63800       -1.19800
C          1.05300        8.10800       -2.43900
H          2.06000        8.50700       -2.53700
C          0.54400        7.75900       -3.85600
H         -0.47700        7.37700       -3.79600
H          0.50300        8.69500       -4.41500
C          1.42400        6.77000       -4.65000
H          2.46500        6.89000       -4.35100
C          1.00900        5.30800       -4.45700
H          1.66000        4.65900       -5.04300
H          1.08800        5.01900       -3.41200
H         -0.02200        5.16700       -4.78300
C          1.33100        7.06500       -6.14900
H          0.29800        6.97000       -6.48600
H          1.68100        8.07800       -6.34900
H          1.95700        6.36700       -6.70500
C          0.25200        9.24500       -1.76400
O         -0.53800        9.94000       -2.39900
N          0.44000        9.41900       -0.45400
H          1.20600        8.90400       -0.03100
C         -0.32500       10.31600        0.42300
H         -1.36300       10.30900        0.08500
C         -0.30400        9.77400        1.87100
H          0.72900        9.63400        2.19400
H         -0.75800       10.52000        2.52600
C         -1.09800        8.46800        2.07500
H         -1.13000        8.25000        3.14300
H         -2.12100        8.60900        1.72700
C         -0.50100        7.25400        1.36900
O         -1.01400        6.68800        0.41300
O          0.71100        6.86800        1.81800
H          1.01900        6.15700        1.23100
C          0.13900       11.78900        0.31900
O          0.33100       12.47900        1.31400
N          0.35400       12.29700       -0.88600
H          0.15900       11.73200       -1.70200
H          0.66500       13.25100       -0.95900
