57
0 1
H          7.44100        8.66100        2.50900
C          7.52300        7.90600        3.28800
H          6.66100        7.24300        3.23900
H          7.56500        8.37800        4.26800
C          8.78300        7.08800        3.07000
O          8.66900        5.89400        2.81100
N          9.98500        7.68700        3.17900
C         10.21800        9.10700        3.40600
H         10.21400        9.30800        4.47800
H          9.47800        9.72900        2.90300
C         11.60400        9.38500        2.82900
H         12.08700       10.22900        3.32200
H         11.52900        9.55500        1.75400
C         12.34000        8.07300        3.09300
H         12.69400        8.06100        4.12600
H         13.17400        7.93200        2.40500
C         11.25600        7.00700        2.89300
H         11.25100        6.69800        1.84700
C         11.54100        5.77000        3.75800
O         12.27800        4.88400        3.33600
N         10.93000        5.67300        4.94400
H         10.27400        6.39800        5.20400
C         10.98800        4.49600        5.82200
H         12.02900        4.24000        6.02200
C         10.28500        4.85300        7.14100
H         10.43100        4.04000        7.85300
H         10.73300        5.75400        7.56300
C          8.80400        5.07900        6.95400
N          8.22800        6.19400        6.34000
C          6.92200        5.90500        6.21800
H          6.18900        6.55900        5.76300
N          6.66000        4.68000        6.70500
H          5.76400        4.21100        6.66600
C          7.83600        4.14400        7.17500
H          7.99300        3.14900        7.56900
C         10.32100        3.25000        5.21200
O         10.53600        2.14400        5.69900
N          9.49100        3.42600        4.17900
H          9.32900        4.37400        3.85700
C          8.77400        2.36000        3.47500
H          8.69600        1.50600        4.14300
C          7.35600        2.86500        3.14700
H          7.06800        3.65900        3.83800
H          7.36100        3.29300        2.14400
C          6.28500        1.77000        3.21900
H          5.50300        2.03700        2.50700
H          6.70400        0.81600        2.89900
S          5.47700        1.57700        4.84100
C          6.76500        0.74500        5.80800
H          7.11300       -0.14000        5.27400
H          7.60200        1.42200        5.97700
H          6.35600        0.44300        6.77200
C          9.51400        1.84800        2.22400
O          9.00900        0.98800        1.51200
N         10.70200        2.35700        1.91600
H         11.12000        3.06500        2.50400
H         11.17400        2.01100        1.09900
