61
0 1
H          7.14400        6.73500        6.95200
C          7.08900        5.67000        6.72800
H          6.07500        5.42400        6.41700
H          7.36400        5.10000        7.61200
C          8.04800        5.35700        5.59500
O          8.61000        6.29100        5.03000
N          8.23300        4.07100        5.22900
C          7.54500        2.91500        5.78600
H          6.47900        3.10300        5.91700
H          8.00100        2.64800        6.74100
C          7.75600        1.78600        4.77800
H          6.99100        1.83800        4.00200
H          7.75200        0.80800        5.25900
C          9.12200        2.12100        4.17900
H          9.25000        1.67900        3.19000
H          9.90700        1.77300        4.85200
C          9.12900        3.65400        4.14000
H         10.14000        4.01300        4.33800
C          8.70800        4.18900        2.75900
O          9.52100        4.24300        1.84300
N          7.45900        4.63900        2.63000
H          6.84600        4.53800        3.42500
C          7.03900        5.64000        1.65500
H          7.92800        6.08400        1.20800
C          6.23100        4.98200        0.52900
H          6.83400        4.18900        0.08400
H          5.33900        4.52100        0.95600
C          5.80400        5.92300       -0.55500
C          6.47000        6.12500       -1.71500
H          7.37600        5.60400       -2.00500
N          5.84300        7.11600       -2.44400
H          6.17400        7.43900       -3.34200
C          4.74300        7.61600       -1.78100
C          3.82100        8.62800       -2.08700
H          3.90300        9.18100       -3.01000
C          2.79000        8.91000       -1.17500
H          2.06800        9.68500       -1.39300
C          2.69400        8.17800        0.02300
H          1.89800        8.39500        0.72100
C          3.62600        7.16400        0.31800
H          3.54200        6.61200        1.24400
C          4.67900        6.85900       -0.57300
C          6.24200        6.72600        2.40400
O          5.45600        6.36500        3.28600
N          6.41400        8.02900        2.10300
C          5.63200        9.08300        2.73500
H          5.69300        9.02200        3.82300
H          4.59200        9.00100        2.41500
C          6.22000       10.40400        2.24200
H          7.02900       10.71800        2.90300
H          5.45900       11.18100        2.16400
C          6.78600       10.02300        0.87600
H          7.55800       10.72100        0.54800
H          5.97700        9.98700        0.14500
C          7.32500        8.60700        1.10900
H          7.26000        8.05900        0.17100
C          8.81000        8.62900        1.52800
O          9.65300        9.07000        0.75800
N          9.17900        8.16800        2.71800
H          8.51100        7.78000        3.36700
H         10.16000        8.17400        2.94400
