54
0 1
H          9.41900        7.89700        0.95000
C          8.89500        8.42600        1.74500
H          9.19500        9.47200        1.74100
H          9.13400        7.97000        2.70400
C          7.40100        8.33200        1.49500
O          7.00600        7.75300        0.48800
N          6.55500        8.87000        2.39000
C          6.91200        9.56100        3.62100
H          7.69500       10.30200        3.45100
H          7.23700        8.83200        4.36500
C          5.63300       10.25200        4.09600
H          5.56800       11.24800        3.65400
H          5.58700       10.31300        5.18400
C          4.52600        9.36100        3.52900
H          3.59000        9.90700        3.40500
H          4.38100        8.50100        4.18500
C          5.10800        8.89000        2.19200
H          4.76700        7.87600        1.98700
C          4.70500        9.83000        1.03600
O          5.31900       10.88800        0.87300
N          3.64000        9.51700        0.26800
C          2.86700        8.28300        0.34300
H          2.48400        8.11400        1.35000
H          3.49500        7.44600        0.03200
C          1.70700        8.44300       -0.64000
H          0.85200        8.89200       -0.13200
H          1.42800        7.49200       -1.09500
C          2.27100        9.42200       -1.66900
H          1.48500        9.93500       -2.22400
H          2.92200        8.88300       -2.36000
C          3.11700       10.36800       -0.80700
H          3.94300       10.75000       -1.40900
C          2.33600       11.57600       -0.24600
O          1.12500       11.69900       -0.42500
N          3.02900       12.45700        0.47900
H          4.02000       12.26800        0.59100
C          2.47100       13.59300        1.22500
H          1.54300       13.25200        1.68700
C          3.44800       13.95800        2.35900
H          3.77100       13.04500        2.86300
H          4.33100       14.43600        1.93200
C          2.83700       14.88700        3.41500
H          3.63100       15.19700        4.09400
H          2.44600       15.78300        2.93400
S          1.51800       14.12800        4.40300
C          1.05000       15.55200        5.42100
H          1.90800       15.88300        6.00600
H          0.71200       16.36500        4.77900
H          0.24200       15.26600        6.09500
C          2.09500       14.78400        0.31600
O          2.60300       15.89200        0.44800
N          1.22500       14.56900       -0.66000
H          0.98400       15.33100       -1.27100
H          0.83700       13.64200       -0.77800
