56
0 1
H          0.39700        2.65800       13.52300
C          0.41900        3.43700       12.76400
H          1.07600        4.24200       13.09000
H         -0.58200        3.83500       12.60500
C          0.94700        2.86400       11.46200
O          1.95200        3.36600       10.96700
N          0.30900        1.82600       10.89100
C         -0.90800        1.20600       11.39700
H         -1.69500        1.94400       11.55600
H         -0.68800        0.68200       12.32800
C         -1.33700        0.20100       10.33000
H         -1.95600        0.69800        9.58100
H         -1.86200       -0.65100       10.76400
C         -0.00200       -0.20900        9.71000
H         -0.13200       -0.63300        8.71400
H          0.49500       -0.92900       10.36200
C          0.79100        1.10500        9.70500
H          1.85000        0.87500        9.82600
C          0.63200        1.85600        8.36500
O          0.90400        1.28800        7.31000
N          0.16600        3.11000        8.36100
H         -0.06400        3.53100        9.25600
C         -0.21300        3.85300        7.14700
H         -0.95800        3.26500        6.61000
C         -0.85100        5.20000        7.54000
H         -0.24100        5.70100        8.29400
H         -0.86400        5.83800        6.65600
C         -2.31100        5.08700        8.02300
H         -2.74700        6.08600        8.01700
H         -2.87400        4.48200        7.31100
C         -2.50600        4.51500        9.42600
O         -1.59100        4.32800       10.20900
N         -3.72500        4.21100        9.81000
H         -3.82300        3.86900       10.74900
H         -4.50800        4.36100        9.20100
C          0.93300        4.08100        6.13900
O          0.65900        4.29800        4.96200
N          2.19800        4.00800        6.56300
H          2.35500        3.87400        7.55100
C          3.36800        4.03900        5.67000
H          3.18500        4.81000        4.92000
C          4.62800        4.46300        6.45500
H          5.40900        4.69000        5.72800
H          4.42100        5.38900        6.99300
C          5.20000        3.41000        7.43100
H          5.43300        2.49200        6.89300
H          6.13100        3.80300        7.83800
C          4.29100        3.07700        8.61200
O          4.04600        1.94600        9.00100
O          3.67300        4.13600        9.17600
H          3.12500        3.79600        9.91300
C          3.60700        2.72900        4.88600
O          4.51800        2.66100        4.06900
N          2.85100        1.66400        5.12100
H          3.03200        0.82400        4.59800
H          2.11500        1.69400        5.81500
