68
0 1
H         12.85800        5.00800       -1.65400
C         12.64600        5.84500       -0.99300
H         12.05300        6.58900       -1.52500
H         13.57400        6.30300       -0.66100
C         11.85700        5.35500        0.20600
O         10.72300        5.78500        0.38000
N         12.42000        4.46400        1.04300
C         13.79900        4.00100        0.97100
H         14.50000        4.83500        0.93200
H         13.92200        3.36200        0.09600
C         14.02900        3.18400        2.24100
H         14.31500        3.84700        3.06000
H         14.77700        2.40600        2.09300
C         12.64400        2.60000        2.51100
H         12.52800        2.30400        3.55400
H         12.48100        1.74000        1.86000
C         11.69700        3.73600        2.09700
H         10.80200        3.29100        1.66500
C         11.23200        4.58100        3.30100
O         10.77000        4.02700        4.29700
N         11.31300        5.91400        3.23800
H         11.59100        6.32800        2.35900
C         10.84300        6.82600        4.29300
H         11.27300        6.50800        5.24500
C         11.35200        8.24400        3.99500
H         10.89600        8.94700        4.69400
H         12.42500        8.26100        4.18500
C         11.12600        8.73400        2.59600
C          9.93800        9.12000        2.08000
H          9.00300        9.14000        2.63000
N         10.09900        9.46400        0.75200
H          9.34000        9.77100        0.16200
C         11.40900        9.32600        0.34600
C         12.06600        9.56100       -0.87100
H         11.51500        9.92100       -1.72600
C         13.45100        9.33600       -0.95500
H         13.97500        9.52500       -1.88200
C         14.15600        8.87200        0.17100
H         15.22300        8.71100        0.10400
C         13.48300        8.62600        1.38400
H         14.03700        8.28300        2.24500
C         12.09400        8.85300        1.50600
C          9.31600        6.81800        4.50100
O          8.83600        7.40000        5.46900
N          8.54600        6.14300        3.63900
H          8.99300        5.70100        2.85000
C          7.13100        5.82800        3.88800
H          6.63900        6.72500        4.26700
C          6.45700        5.44400        2.56000
H          5.39800        5.25800        2.74500
H          6.51500        6.29700        1.88300
C          7.05100        4.22500        1.87200
C          7.95800        4.39200        0.80900
H          8.21800        5.38500        0.46700
C          8.53700        3.26900        0.19000
H          9.23800        3.39400       -0.62100
C          8.21000        1.97200        0.63300
O          8.78900        0.89300        0.04500
H          8.42900        0.07100        0.37900
C          7.28800        1.80000        1.68800
H          7.02900        0.81000        2.02900
C          6.70600        2.92800        2.30000
H          5.99700        2.79700        3.10900
C          6.92000        4.72900        4.95300
O          5.79100        4.45900        5.34700
N          7.96200        4.05100        5.42300
H          8.89400        4.23400        5.07600
H          7.79700        3.34600        6.12100
