54
0 1
H          1.72500        0.71100        5.47300
C          2.00000        0.21300        6.40200
H          1.16100       -0.39000        6.74400
H          2.24300        0.96700        7.14800
C          3.20100       -0.68000        6.14400
O          3.74300       -0.63100        5.04500
N          3.64900       -1.48400        7.12800
C          4.74200       -2.43000        6.94100
H          5.59600       -1.95800        6.45300
H          4.38900       -3.27100        6.34200
C          5.13000       -2.91300        8.33700
H          5.88600       -2.24900        8.76100
H          5.48500       -3.94400        8.32500
C          3.82000       -2.77100        9.11300
H          3.99000       -2.70600       10.18800
H          3.16800       -3.61700        8.88500
C          3.21400       -1.48800        8.53300
H          2.12700       -1.53800        8.60200
C          3.69600       -0.25400        9.32300
O          3.32100       -0.07300       10.47800
N          4.53700        0.58200        8.70800
H          4.83400        0.33200        7.77700
C          5.11500        1.80500        9.27300
H          5.78000        1.50700       10.08100
C          5.95700        2.50000        8.18900
H          5.29100        3.03500        7.50900
H          6.61600        3.23000        8.65900
C          6.78900        1.54400        7.37100
N          7.89000        0.82900        7.84000
C          8.26200        0.02400        6.83500
H          9.09900       -0.66200        6.87800
N          7.44400        0.18000        5.77900
H          7.50200       -0.32500        4.90600
C          6.50200        1.13100        6.10200
H          5.67300        1.46100        5.48900
C          4.03200        2.76800        9.80200
O          3.00300        2.92000        9.14300
N          4.24700        3.45800       10.94100
C          3.27800        4.41600       11.45900
H          2.30000        3.95200       11.59600
H          3.19700        5.25600       10.76700
C          3.83000        4.90100       12.79800
H          3.48600        4.24600       13.60000
H          3.55200        5.93700       12.99900
C          5.33700        4.74200       12.60900
H          5.86100        4.68300       13.56400
H          5.72000        5.57900       12.02300
C          5.44600        3.45000       11.78900
H          6.34300        3.50500       11.17200
C          5.58500        2.22100       12.71300
O          6.54700        2.12500       13.46200
N          4.66500        1.26500       12.69900
H          4.79400        0.47500       13.30900
H          3.89800        1.28300       12.04100
