53
0 1
H          6.86700        3.71500       -5.60900
C          6.57900        4.48800       -6.32000
H          5.79600        4.12000       -6.98000
H          7.44800        4.77500       -6.91200
C          6.07800        5.70300       -5.56200
O          6.68900        6.76200       -5.67200
N          4.97100        5.59100       -4.80600
C          4.15800        4.39700       -4.62600
H          4.77400        3.52200       -4.41300
H          3.55900        4.22900       -5.52200
C          3.24400        4.69400       -3.43800
H          3.74100        4.39600       -2.51500
H          2.28100        4.19000       -3.53200
C          3.09500        6.21600       -3.48300
H          2.85600        6.63100       -2.50300
H          2.32000        6.48200       -4.20400
C          4.45500        6.69400       -4.00000
H          4.30600        7.55600       -4.64800
C          5.41700        7.05800       -2.84700
O          5.98900        6.15900       -2.22400
N          5.57800        8.35200       -2.50400
C          4.96800        9.49700       -3.17000
H          3.88100        9.41200       -3.19100
H          5.36100        9.57300       -4.18600
C          5.38500       10.73100       -2.37000
H          4.66000       10.91900       -1.57700
H          5.49400       11.60800       -3.00700
C          6.71900       10.29900       -1.76300
H          6.97900       10.88500       -0.88100
H          7.50400       10.39300       -2.51600
C          6.49000        8.81300       -1.45200
H          7.44200        8.28900       -1.53700
C          5.92600        8.55200       -0.04100
O          5.49900        9.46900        0.65800
N          5.91500        7.28600        0.38300
H          6.23700        6.58400       -0.27500
C          5.43000        6.82800        1.69500
H          4.51000        7.37000        1.92000
C          5.09500        5.32200        1.63900
H          6.01300        4.76700        1.43800
H          4.72200        5.00700        2.61500
C          4.05400        4.92700        0.57500
H          4.41400        5.20500       -0.41100
H          3.94000        3.84300        0.58600
C          2.67300        5.54400        0.78300
O          2.30200        6.17400        1.76100
O          1.80500        5.34500       -0.22700
H          0.99700        5.76800        0.06900
C          6.40900        7.16100        2.84500
O          6.90000        6.28700        3.55000
N          6.74500        8.42900        3.03600
H          7.38700        8.65200        3.77700
H          6.34400        9.14100        2.43800
