63
0 1
H         10.19500        2.73600       -7.88600
C         11.24300        2.50400       -7.70700
H         11.59000        3.03800       -6.82400
H         11.84500        2.80500       -8.56300
C         11.39900        1.01200       -7.47800
O         11.76600        0.62500       -6.37000
N         11.15400        0.15900       -8.49300
C         10.72900        0.53500       -9.83400
H         11.60300        0.81700      -10.42300
H         10.00600        1.35200       -9.81800
C         10.08400       -0.71600      -10.42500
H         10.16900       -0.74100      -11.51200
H          9.03900       -0.77200      -10.11600
C         10.87800       -1.84100       -9.76500
H         11.82000       -1.97800      -10.30000
H         10.31400       -2.77400       -9.74100
C         11.14400       -1.30400       -8.35400
H         10.30800       -1.57800       -7.70900
C         12.42300       -1.91700       -7.76500
O         12.35800       -2.95500       -7.11300
N         13.57000       -1.24900       -7.92200
H         13.54100       -0.41600       -8.49800
C         14.85300       -1.59300       -7.29200
H         15.11800       -2.60200       -7.61200
C         15.94400       -0.63000       -7.80800
H         16.90100       -0.98500       -7.42200
H         16.00000       -0.69000       -8.89600
C         15.78800        0.84700       -7.37800
H         15.51700        0.89200       -6.32800
H         16.75400        1.34000       -7.48900
C         14.77000        1.64800       -8.19100
O         14.17600        1.21600       -9.17300
O         14.55400        2.91000       -7.74700
H         14.95700        3.08700       -6.89100
C         14.82900       -1.61900       -5.74600
O         15.79000       -2.08500       -5.13800
N         13.76300       -1.11800       -5.11200
H         13.03700       -0.68400       -5.67100
C         13.54700       -1.13800       -3.65900
H         14.34600       -1.71400       -3.19300
C         13.63200        0.29700       -3.11300
H         12.75900        0.84900       -3.46600
H         13.57900        0.26100       -2.02400
C         14.86500        1.06700       -3.49200
C         16.13700        0.63800       -3.33100
H         16.41400       -0.32100       -2.90600
N         17.01600        1.58600       -3.81700
H         18.01900        1.47300       -3.78700
C         16.35000        2.67500       -4.33300
C         16.78200        3.85100       -4.96300
H         17.83700        4.04200       -5.09700
C         15.82800        4.78700       -5.39500
H         16.14300        5.71000       -5.86500
C         14.45900        4.52800       -5.20300
H         13.72500        5.25300       -5.53400
C         14.03500        3.33300       -4.59000
H         12.97900        3.13800       -4.45700
C         14.96800        2.37900       -4.12900
C         12.23900       -1.84700       -3.25600
O         11.79700       -1.75200       -2.11700
N         11.58800       -2.56700       -4.16300
H         11.96200       -2.67300       -5.09600
H         10.73700       -3.02600       -3.88600
