53
0 1
H          1.82500       -2.57500       -1.28100
C          1.74100       -1.58300       -1.72000
H          0.91200       -1.05100       -1.25700
H          1.56700       -1.66000       -2.79200
C          3.02300       -0.80800       -1.47400
O          2.95500        0.27600       -0.90200
N          4.19300       -1.32900       -1.88600
C          4.37900       -2.57300       -2.61900
H          3.63800       -2.68900       -3.41100
H          4.32500       -3.41400       -1.92500
C          5.78000       -2.48800       -3.22400
H          5.73200       -1.98000       -4.18900
H          6.23500       -3.47300       -3.33100
C          6.53500       -1.61800       -2.21900
H          7.38700       -1.11400       -2.67800
H          6.86600       -2.23500       -1.38200
C          5.46800       -0.63100       -1.73300
H          5.63700       -0.40600       -0.67900
C          5.48500        0.68100       -2.53000
O          5.01400        0.74000       -3.66800
N          6.03600        1.74300       -1.94100
H          6.42800        1.63200       -1.01600
C          6.09300        3.09900       -2.50000
H          6.17600        3.03400       -3.58500
C          4.81100        3.87100       -2.11800
H          4.61200        3.72800       -1.05500
H          4.97300        4.93900       -2.27100
C          3.55700        3.47300       -2.91600
H          3.31100        2.42600       -2.74800
H          2.71600        4.06200       -2.55100
C          3.71000        3.75400       -4.40900
O          3.55200        4.86400       -4.89800
O          4.08600        2.69300       -5.16800
H          4.30600        1.91300       -4.62700
C          7.33900        3.84800       -1.98600
O          7.85600        3.49300       -0.92400
N          7.83800        4.87100       -2.70900
C          7.36600        5.34200       -4.00700
H          6.28000        5.42400       -4.04600
H          7.71800        4.66500       -4.78700
C          7.99300        6.72200       -4.20100
H          7.34800        7.48300       -3.75900
H          8.17600        6.93800       -5.25400
C          9.29500        6.62000       -3.40500
H          9.65700        7.60100       -3.09400
H         10.04900        6.11000       -4.00700
C          8.90800        5.73600       -2.21400
H          9.76600        5.13200       -1.91800
C          8.44600        6.57100       -1.00800
O          7.30000        6.99700       -0.92200
N          9.34200        6.85700       -0.07300
H          9.03800        7.40200        0.71700
H         10.27800        6.49700       -0.13900
