66
0 1
H         13.12800       11.02200       -3.57500
C         12.84600        9.97000       -3.58800
H         12.40600        9.72200       -4.55200
H         12.12700        9.77700       -2.79600
C         14.08500        9.12300       -3.35900
O         15.15200        9.68700       -3.13500
N         13.97700        7.78200       -3.39400
C         12.75100        7.03700       -3.65300
H         12.28400        7.35300       -4.58700
H         12.06000        7.17400       -2.82000
C         13.15900        5.56700       -3.74600
H         13.39000        5.31500       -4.78200
H         12.38200        4.90700       -3.35700
C         14.43000        5.50800       -2.89800
H         15.06600        4.66500       -3.16900
H         14.15700        5.44400       -1.84300
C         15.09600        6.86500       -3.16600
H         15.65700        7.16900       -2.28100
C         16.05100        6.85600       -4.37300
O         15.97000        5.97900       -5.23000
N         16.92100        7.87100       -4.46300
H         16.83300        8.57100       -3.73500
C         17.70400        8.27900       -5.64600
H         18.27200        9.16000       -5.34400
C         18.74600        7.19900       -6.01700
H         19.29200        6.95900       -5.10400
H         18.24700        6.28800       -6.34800
C         19.76500        7.62700       -7.09600
H         20.01300        8.68000       -6.96400
C         21.05000        6.81200       -6.93700
H         21.77900        7.12000       -7.68700
H         21.47800        6.98400       -5.94900
H         20.83500        5.75000       -7.05900
C         19.27000        7.40000       -8.52800
H         18.40700        8.02500       -8.74400
H         20.05600        7.66000       -9.23600
H         18.99700        6.35400       -8.66800
C         16.81800        8.75400       -6.81000
O         16.94800        9.89300       -7.25400
N         15.86600        7.93200       -7.25200
H         15.82900        7.00800       -6.83400
C         14.77100        8.32200       -8.14300
H         15.17300        8.98700       -8.90900
C         14.21800        7.08200       -8.86100
H         13.87000        6.36400       -8.11600
H         13.35600        7.37900       -9.45900
C         15.20400        6.39900       -9.76400
C         15.39500        6.69700      -11.07000
H         14.83500        7.44400      -11.61900
N         16.42400        5.92900      -11.57900
H         16.74400        5.98900      -12.53400
C         16.96000        5.09900      -10.61900
C         18.00800        4.16600      -10.64100
H         18.57000        3.99700      -11.54700
C         18.31500        3.45600       -9.46700
H         19.11900        2.73300       -9.46300
C         17.56600        3.68200       -8.29800
H         17.79700        3.13000       -7.39700
C         16.51500        4.62000       -8.29100
H         15.94200        4.77100       -7.39000
C         16.19000        5.36400       -9.44700
C         13.70100        9.12300       -7.37800
O         12.58800        8.66900       -7.13700
N         14.04400       10.32400       -6.93300
H         14.99000       10.65100       -7.08000
H         13.37000       10.86400       -6.41900
