54
0 1
H          5.11100        3.42200       -3.09900
C          4.76600        4.44200       -3.26000
H          3.67800        4.46600       -3.24500
H          5.13100        4.80000       -4.22100
C          5.30700        5.33000       -2.15500
O          6.03600        4.83000       -1.30400
N          4.97400        6.63200       -2.14100
C          4.12800        7.30500       -3.11900
H          3.15100        6.82700       -3.19500
H          4.62600        7.30500       -4.09000
C          3.97400        8.74200       -2.62100
H          3.10600        8.81200       -1.96300
H          3.89000        9.44900       -3.44700
C          5.25300        8.95900       -1.81400
H          5.14200        9.76500       -1.08700
H          6.08000        9.17500       -2.49200
C          5.47700        7.59300       -1.15400
H          6.54500        7.44000       -0.99200
C          4.77700        7.52200        0.21800
O          5.15000        8.25500        1.12700
N          3.74400        6.68700        0.37500
H          3.49200        6.07700       -0.39200
C          2.83700        6.69900        1.52900
H          2.63000        7.74900        1.74300
C          1.48900        6.08700        1.11100
H          0.84300        6.00300        1.98500
H          1.00500        6.77800        0.42000
C          1.56600        4.74800        0.42000
N          2.02500        4.53100       -0.88400
C          1.88400        3.21400       -1.10200
H          2.15200        2.71300       -2.02300
N          1.37900        2.60600       -0.01500
H          1.21200        1.61500        0.08600
C          1.16600        3.56000        0.95300
H          0.78700        3.40500        1.95500
C          3.34000        6.17000        2.89600
O          2.68100        6.52800        3.87300
N          4.46200        5.43000        3.07100
C          5.10600        5.33900        4.37200
H          4.72700        4.46600        4.90600
H          4.94800        6.24100        4.96600
C          6.58700        5.17000        4.06500
H          7.12700        4.72000        4.89900
H          7.02000        6.13400        3.79100
C          6.54600        4.25200        2.84700
H          6.49500        3.21600        3.18700
H          7.42200        4.39600        2.21200
C          5.25100        4.64200        2.11400
H          5.53500        5.24900        1.26100
C          4.53000        3.37400        1.63500
O          3.75300        2.75700        2.35600
N          4.83600        2.90800        0.43500
H          4.39000        2.06400        0.12400
H          5.46900        3.42800       -0.15900
