61
0 1
H          7.60800        4.50300       12.12700
C          7.34600        5.55600       12.04200
H          7.31600        6.01600       13.02800
H          6.36700        5.64800       11.57200
C          8.37600        6.26600       11.18100
O          8.00100        6.79700       10.14000
N          9.66000        6.28900       11.58600
C         10.16800        5.71600       12.82700
H          9.91400        4.65800       12.91000
H          9.76100        6.26900       13.67500
C         11.68700        5.88800       12.78500
H         12.14400        5.01900       12.31000
H         12.10400        6.04500       13.78000
C         11.86300        7.11800       11.89500
H         12.85800        7.16700       11.45100
H         11.67400        8.01800       12.48200
C         10.74700        6.94700       10.85500
H         10.42400        7.93300       10.52100
C         11.17500        6.14500        9.60900
O         12.26000        5.56800        9.55300
N         10.29900        6.07600        8.60600
H          9.41400        6.55500        8.72200
C         10.60100        5.49300        7.29600
H         11.13200        4.55800        7.47100
C          9.28100        5.16400        6.57900
H          9.49700        4.48800        5.75300
H          8.63100        4.62000        7.26600
C          8.52300        6.32900        6.01800
C          7.64300        7.09900        6.69900
H          7.36400        6.95400        7.73700
N          7.17700        8.10800        5.88000
H          6.52400        8.81400        6.18700
C          7.73600        8.04200        4.62200
C          7.59400        8.82600        3.46800
H          6.93700        9.68300        3.46800
C          8.31700        8.48100        2.31300
H          8.22300        9.07400        1.41400
C          9.16200        7.35700        2.32800
H          9.72400        7.09500        1.44000
C          9.29500        6.57500        3.49200
H          9.95400        5.72100        3.48500
C          8.59500        6.90300        4.67400
C         11.52100        6.42600        6.47100
O         11.50500        7.64200        6.68300
N         12.33200        5.89600        5.53100
C         12.49600        4.47800        5.23500
H         11.54700        4.00900        4.97500
H         12.94100        3.97800        6.09600
C         13.45500        4.39800        4.04700
H         12.89100        4.44300        3.11400
H         14.06900        3.49800        4.08200
C         14.29400        5.66400        4.20900
H         14.76400        5.96900        3.27300
H         15.05600        5.49700        4.97100
C         13.27300        6.68600        4.72800
H         13.79000        7.40200        5.36800
C         12.56200        7.47800        3.61200
O         12.65600        7.16100        2.43100
N         11.81500        8.51200        3.96900
H         11.27800        8.98400        3.26000
H         11.67400        8.70100        4.95300
