56
0 1
H          7.74200        7.50300       -3.77600
C          8.49100        8.27200       -3.95100
H          8.39000        9.05000       -3.19500
H          8.34600        8.71400       -4.93500
C          9.88400        7.67300       -3.85900
O         10.59500        8.00900       -2.91700
N         10.28600        6.79300       -4.79800
C         11.62700        6.22300       -4.83400
H         11.93900        5.88200       -3.84500
H         12.32500        6.97300       -5.20700
C         11.56000        5.04500       -5.80500
H         11.28800        4.13800       -5.26500
H         12.50300        4.90500       -6.33500
C         10.43100        5.44900       -6.75400
H          9.97400        4.58400       -7.23600
H         10.82200        6.13500       -7.50800
C          9.44800        6.20000       -5.84900
H          8.95100        6.97700       -6.43000
C          8.37400        5.25700       -5.27600
O          7.27900        5.15900       -5.82000
N          8.65100        4.64300       -4.12500
H          9.58300        4.75800       -3.74900
C          7.70000        3.97000       -3.24400
H          6.69600        4.35400       -3.43300
C          7.70000        2.44600       -3.46700
H          8.70300        2.04500       -3.30900
H          7.05100        2.00700       -2.70700
C          7.16300        1.99900       -4.84100
H          6.79000        0.98000       -4.74500
H          6.32100        2.62800       -5.13200
C          8.19700        1.99000       -5.96800
O          9.38500        2.26500       -5.86800
O          7.71500        1.60800       -7.16600
H          8.46100        1.65700       -7.76400
C          8.08500        4.32000       -1.80000
O          9.27000        4.46000       -1.50300
N          7.10200        4.50500       -0.91700
H          6.14800        4.31600       -1.19200
C          7.29800        4.99300        0.45500
H          8.28800        4.69800        0.80500
C          7.18700        6.53300        0.49400
H          6.26200        6.83400       -0.00100
H          7.12100        6.85900        1.53300
C          8.36500        7.27700       -0.16200
H          8.43400        7.00200       -1.21300
H          8.17100        8.34900       -0.11900
C          9.70900        7.01600        0.51900
O          9.79000        6.57600        1.65500
N         10.81200        7.29800       -0.13600
H         11.67300        7.08300        0.32800
H         10.77600        7.61300       -1.10100
C          6.28000        4.36100        1.41400
O          5.21500        3.91400        1.00200
N          6.58500        4.33000        2.70400
H          7.46200        4.71300        3.02400
H          5.92200        3.92200        3.34300
