58
0 1
H          3.39600        6.16700        4.53200
C          4.38600        6.61600        4.47800
H          5.05600        5.94100        3.95000
H          4.74800        6.79600        5.48700
C          4.28400        7.93400        3.72900
O          3.16200        8.37600        3.48800
N          5.41100        8.56100        3.33300
C          5.38900        9.77300        2.52500
H          4.63700       10.47900        2.87100
H          5.19600        9.50800        1.48400
C          6.77600       10.39000        2.65500
H          6.82300       11.01000        3.55200
H          7.04900       10.96500        1.76900
C          7.65300        9.15400        2.82800
H          8.61100        9.41400        3.27700
H          7.81100        8.68300        1.85600
C          6.79500        8.23100        3.71100
H          7.01600        7.19300        3.46500
C          7.07400        8.46700        5.21500
O          6.17900        8.89000        5.94300
N          8.29400        8.20300        5.72300
C          9.33400        7.39200        5.10800
H         10.00300        8.03100        4.52800
H          8.92100        6.60200        4.48000
C         10.09800        6.78200        6.28000
H         11.11800        6.51300        6.00400
H          9.55700        5.91400        6.66300
C         10.06300        7.91100        7.30800
H         10.86200        8.61600        7.07600
H         10.17800        7.53300        8.32500
C          8.67700        8.54700        7.09600
H          7.97400        8.06700        7.77800
C          8.65100       10.06800        7.35400
O          9.63500       10.77300        7.13000
N          7.50700       10.58800        7.80500
H          6.69300        9.98900        7.81800
C          7.33100       11.99600        8.17000
H          7.65500       12.60600        7.32700
C          5.84500       12.29300        8.43600
H          5.52900       11.73600        9.31900
H          5.74000       13.35300        8.67000
C          4.91000       11.96200        7.28600
C          4.78200       12.85200        6.20000
H          5.33800       13.77800        6.19000
C          3.93200       12.53200        5.12200
H          3.82900       13.20100        4.28200
C          3.21700       11.31600        5.12200
O          2.44100       10.98600        4.05700
H          2.47800       10.03100        3.88500
C          3.33500       10.43200        6.21400
H          2.79200        9.49900        6.20700
C          4.17200       10.76100        7.29800
H          4.26800       10.07400        8.12600
C          8.18300       12.37300        9.39500
O          8.21800       11.66400       10.39500
N          8.84600       13.52100        9.36200
H          9.40400       13.76500       10.16300
H          8.83400       14.09100        8.53300
