68
0 1
H          9.96300        3.93200        3.44800
C          8.89800        3.74000        3.54900
H          8.35100        4.56100        3.08600
H          8.61800        3.68900        4.59900
C          8.53200        2.45100        2.83900
O          7.89800        2.52000        1.79300
N          8.93200        1.27300        3.35600
C          8.54600       -0.00800        2.77800
H          8.76600       -0.04300        1.71000
H          7.47900       -0.16800        2.94200
C          9.35000       -1.07200        3.52300
H         10.30600       -1.23100        3.02200
H          8.79800       -2.00900        3.60900
C          9.58000       -0.42100        4.88600
H         10.43900       -0.85200        5.40200
H          8.68200       -0.52900        5.49700
C          9.78400        1.05800        4.53500
H          9.44400        1.66900        5.37100
C         11.27600        1.36000        4.29000
O         12.06600        1.35000        5.22900
N         11.66700        1.66100        3.04700
H         10.95700        1.67700        2.33200
C         13.04800        1.92200        2.60600
H         13.65400        1.05100        2.85800
C         13.03900        2.06900        1.07500
H         14.06800        2.15600        0.72200
H         12.62700        1.16100        0.63300
C         12.24500        3.26600        0.57900
C         12.87900        4.51600        0.43500
H         13.94000        4.61000        0.63300
C         12.13100        5.64600        0.05600
H         12.60700        6.61000       -0.04800
C         10.74200        5.53100       -0.16400
O         10.01100        6.64100       -0.44300
H          9.14100        6.41300       -0.77800
C         10.11100        4.27500       -0.04400
H          9.04600        4.18000       -0.20400
C         10.86700        3.14300        0.31200
H         10.37300        2.18400        0.39400
C         13.73500        3.13700        3.27200
O         14.91000        3.38500        3.02100
N         13.02900        3.89000        4.12100
H         12.06800        3.63800        4.27600
C         13.58400        4.95300        4.97000
H         14.22700        5.59500        4.36800
C         12.41900        5.79100        5.52500
H         11.86700        5.17700        6.23800
H         12.83700        6.63300        6.07800
C         11.43000        6.34100        4.53500
C         11.66100        6.58900        3.22500
H         12.60100        6.40800        2.71700
N         10.51600        7.08100        2.63000
H         10.44700        7.28300        1.63800
C          9.48700        7.20200        3.53700
C          8.15700        7.63000        3.42200
H          7.77300        7.96500        2.47000
C          7.33600        7.62000        4.56200
H          6.30900        7.95200        4.49400
C          7.85500        7.18400        5.79500
H          7.22100        7.18300        6.67100
C          9.19200        6.75300        5.89700
H          9.57900        6.42100        6.84900
C         10.04400        6.74800        4.77100
C         14.44200        4.41900        6.13300
O         15.18100        5.17300        6.75300
N         14.35600        3.13700        6.47100
H         14.93000        2.80500        7.22800
H         13.72600        2.52100        5.97700
