61
0 1
H          6.50200        8.30000        6.97400
C          7.35500        8.01900        7.59000
H          7.13800        8.24600        8.63300
H          8.23300        8.56700        7.25700
C          7.59700        6.52800        7.44000
O          6.89500        5.90400        6.65300
N          8.55300        5.93600        8.18500
C          9.50200        6.62300        9.05100
H          9.09300        6.68100       10.06100
H          9.74900        7.62000        8.68700
C         10.75400        5.75100        9.04500
H         11.34800        5.88700        9.94900
H         11.34700        5.96200        8.15300
C         10.16700        4.34500        8.95500
H          9.86400        4.01900        9.95200
H         10.87800        3.63700        8.52500
C          8.93500        4.52000        8.05900
H          9.22600        4.34300        7.02300
C          7.85300        3.48700        8.42200
O          8.07900        2.29000        8.27200
N          6.68700        3.91700        8.91500
H          6.54700        4.91400        9.01700
C          5.49700        3.07000        9.06300
H          5.78200        2.10300        9.48000
C          4.52000        3.77500       10.01900
H          3.69600        3.09800       10.24700
H          5.03000        4.01400       10.95300
C          3.96000        5.04500        9.42400
N          4.67600        6.22900        9.23400
C          3.90700        6.99700        8.44700
H          4.18900        7.97600        8.08100
N          2.76600        6.36000        8.13200
H          2.07900        6.68200        7.46200
C          2.78000        5.12800        8.74400
H          2.06100        4.33000        8.61600
C          4.79700        2.80900        7.71600
O          4.08800        1.81400        7.58500
N          4.97300        3.71600        6.74600
H          5.61700        4.47100        6.95200
C          4.31900        3.80700        5.43400
H          4.62500        4.76900        5.01900
C          4.87900        2.74200        4.47900
H          4.62300        1.74900        4.85000
H          4.40500        2.86100        3.50400
C          6.38500        2.83700        4.30300
C          7.24400        2.08500        5.12900
H          6.83300        1.41600        5.87400
C          8.63900        2.23300        5.02000
H          9.29800        1.67600        5.66900
C          9.18200        3.13000        4.07900
O         10.52900        3.28400        3.98800
H         10.77200        3.85100        3.25700
C          8.32400        3.87600        3.24000
H          8.73400        4.56900        2.52400
C          6.92800        3.73000        3.35700
H          6.26900        4.31800        2.73500
C          2.78000        3.86700        5.47400
O          2.18800        4.88600        5.13300
N          2.09700        2.81900        5.90900
H          2.60500        2.02600        6.28100
H          1.09300        2.86400        5.92800
