61
0 1
H          8.94600        4.82800        8.71100
C          9.67500        4.08700        9.03200
H          9.25000        3.08800        8.95800
H          9.95700        4.28400       10.06500
C         10.91100        4.18000        8.15700
O         11.98800        4.43800        8.68600
N         10.79000        3.97300        6.83200
C          9.55000        3.64100        6.14000
H          8.78500        4.39800        6.31300
H          9.19800        2.66500        6.47500
C          9.89800        3.57600        4.65200
H          9.77100        4.56100        4.19900
H          9.29800        2.83100        4.12800
C         11.38000        3.20200        4.66900
H         11.88200        3.46000        3.73600
H         11.48000        2.13200        4.86000
C         11.90700        3.98500        5.88000
H         12.75600        3.44800        6.30500
C         12.37900        5.41600        5.54600
O         12.35000        5.84600        4.39100
N         12.77200        6.17800        6.56700
H         12.76200        5.76100        7.49100
C         13.22200        7.56700        6.45000
H         12.64700        8.04200        5.65300
C         12.91900        8.32000        7.75200
H         13.52400        7.89400        8.55300
H         13.21900        9.36200        7.63300
C         11.45500        8.28800        8.15400
C         11.04400        7.54800        9.28000
H         11.77200        6.99800        9.86400
C          9.68400        7.51000        9.64100
H          9.36000        6.94800       10.50400
C          8.72900        8.20500        8.87200
O          7.41700        8.15100        9.21700
H          6.88300        8.74200        8.68600
C          9.13900        8.94600        7.74200
H          8.41200        9.47700        7.14700
C         10.50200        8.98700        7.38700
H         10.81600        9.55100        6.51900
C         14.70800        7.68300        6.07500
O         15.54400        6.87900        6.48400
N         15.04300        8.72500        5.31300
H         14.28100        9.31300        4.99200
C         16.34700        8.95600        4.67600
H         16.74900        7.98800        4.37300
C         16.14400        9.80000        3.39300
H         15.62000       10.72200        3.64800
H         17.12200       10.07400        2.99500
C         15.38500        9.07900        2.25600
H         15.30300        9.75300        1.40400
H         15.97600        8.21800        1.94200
C         13.97900        8.61400        2.63300
O         13.20400        9.32400        3.25600
N         13.63900        7.37500        2.35900
H         14.27700        6.75600        1.90100
H         12.82300        7.01300        2.84500
C         17.39100        9.55700        5.64600
O         18.10700       10.49700        5.32200
N         17.48100        9.04900        6.86700
H         18.15200        9.44200        7.50500
H         16.90900        8.25100        7.11400
