59
0 1
H          6.30300        4.72900        7.01900
C          5.95900        3.71700        6.81200
H          4.89000        3.64500        7.00100
H          6.49000        3.01600        7.45500
C          6.24200        3.37100        5.36200
O          6.95700        2.40300        5.11600
N          5.70300        4.12800        4.38900
C          4.82700        5.27500        4.59800
H          5.28600        6.01200        5.25800
H          3.87800        4.93500        5.01600
C          4.58900        5.88600        3.21700
H          5.34700        6.64500        3.01600
H          3.59000        6.31200        3.13100
C          4.78200        4.69400        2.27800
H          5.03200        5.00500        1.26300
H          3.87200        4.09200        2.26900
C          5.90800        3.89900        2.95500
H          5.78800        2.84000        2.72300
C          7.32300        4.33500        2.52600
O          7.49600        5.37600        1.89200
N          8.34200        3.57300        2.94900
H          8.06700        2.77000        3.50800
C          9.77700        3.92200        3.00900
H         10.27800        3.06200        3.45400
C         10.34600        4.07500        1.57700
H         10.09400        3.16400        1.03100
H          9.83600        4.89400        1.07100
C         11.86300        4.29700        1.40300
H         12.07600        4.14600        0.34400
C         12.32900        5.71600        1.74000
H         13.34800        5.85200        1.37900
H         11.68500        6.44500        1.24900
H         12.32400        5.88600        2.81400
C         12.70600        3.28800        2.18200
H         12.60300        3.45200        3.25500
H         12.38900        2.27500        1.93700
H         13.75500        3.40400        1.91000
C         10.06900        5.09600        3.96500
O         10.94000        4.99500        4.82500
N          9.28700        6.17200        3.88000
H          8.61000        6.17100        3.12500
C          9.21900        7.28100        4.83500
H         10.23300        7.61300        5.06400
C          8.46000        8.45000        4.18200
H          7.45800        8.11200        3.91300
H          8.36600        9.26600        4.90000
C          9.16900        8.98300        2.92900
H         10.11500        9.43000        3.23600
H          9.39400        8.15700        2.25300
S          8.23200       10.22100        1.99200
C          6.94800        9.16800        1.25900
H          6.30900        8.76100        2.04100
H          6.34000        9.76300        0.57700
H          7.41200        8.35000        0.70700
C          8.56300        6.83300        6.15700
O          7.42400        7.16800        6.46300
N          9.25300        6.02200        6.94500
H         10.15200        5.67900        6.63300
H          8.83700        5.71000        7.80600
