57
0 1
H          2.34900        7.95400       -0.97200
C          3.16400        8.03300       -0.25600
H          2.91100        7.47500        0.64400
H          3.33400        9.07700        0.00400
C          4.42800        7.45100       -0.86100
O          4.87700        6.40900       -0.38700
N          5.01100        8.08300       -1.89600
C          4.46300        9.20200       -2.64500
H          4.79800       10.13800       -2.19500
H          3.37400        9.17300       -2.69300
C          5.04800        9.05900       -4.04700
H          5.08600       10.01500       -4.57100
H          4.46900        8.32900       -4.61500
C          6.44500        8.50700       -3.76600
H          7.11600        9.33800       -3.54300
H          6.82700        7.93300       -4.61200
C          6.24800        7.62000       -2.52600
H          6.10400        6.58900       -2.85200
C          7.45200        7.69200       -1.57400
O          7.82000        8.76600       -1.10400
N          8.07700        6.54500       -1.30900
H          7.71400        5.69400       -1.71900
C          9.31800        6.39400       -0.53900
H         10.02500        7.15500       -0.87400
C          9.08000        6.62600        0.97400
H          9.91500        6.20900        1.53800
H          9.09200        7.70200        1.15100
C          7.76700        6.08800        1.56800
H          7.78600        6.22400        2.64900
H          6.93500        6.67700        1.18500
C          7.53300        4.61300        1.27700
O          8.34300        3.76300        1.60300
N          6.43800        4.25300        0.65000
H          5.77500        4.95900        0.33900
H          6.33300        3.27700        0.44700
C          9.96500        5.03000       -0.85500
O          9.38400        4.21000       -1.56600
N         11.19400        4.80900       -0.38200
H         11.60700        5.50200        0.23100
C         12.05000        3.66000       -0.72000
H         11.90400        3.41700       -1.77300
C         13.51100        4.09600       -0.52300
H         14.17900        3.28300       -0.80900
H         13.72100        4.94100       -1.17800
C         13.80700        4.50900        0.89700
N         13.42900        5.72400        1.47600
C         13.80800        5.64900        2.76000
H         13.65800        6.43500        3.48900
N         14.38200        4.46000        3.01400
H         14.72900        4.15700        3.91300
C         14.38300        3.72300        1.85100
H         14.72700        2.70700        1.71100
C         11.75400        2.35900        0.05600
O         12.52700        1.41000       -0.01900
N         10.68000        2.27100        0.82700
H         10.51500        1.41200        1.32100
H         10.01700        3.03300        0.88700
