54
0 1
H          4.43400        0.11900       11.38500
C          4.19500        0.94000       10.71300
H          3.46500        1.59500       11.18800
H          3.78100        0.55600        9.78200
C          5.45100        1.73800       10.41700
O          5.47400        2.92900       10.71400
N          6.49800        1.12000        9.83700
C          6.55800       -0.29400        9.48700
H          5.73300       -0.57800        8.83300
H          6.54100       -0.89400       10.39800
C          7.89200       -0.49700        8.76600
H          7.76100       -0.33600        7.69500
H          8.30900       -1.48600        8.95800
C          8.76400        0.61200        9.35400
H          9.61200        0.85500        8.71300
H          9.12100        0.30700       10.33900
C          7.77100        1.77200        9.51100
H          8.08800        2.39700       10.34700
C          7.66100        2.67700        8.26500
O          8.30700        2.44300        7.24400
N          6.80900        3.70200        8.33200
H          6.30000        3.82800        9.20000
C          6.57400        4.66500        7.25400
H          6.26500        4.11200        6.36800
C          5.40000        5.57600        7.66300
H          4.49100        4.97300        7.71100
H          5.59000        5.97200        8.66100
C          5.15500        6.77100        6.72300
H          4.27300        7.31200        7.06500
H          5.99900        7.45800        6.78700
C          4.93000        6.37100        5.26800
O          4.23300        5.42300        4.95100
N          5.52300        7.06000        4.32100
H          5.33800        6.77600        3.37800
H          6.22400        7.75800        4.55800
C          7.84500        5.48600        6.93700
O          8.35600        6.17000        7.82800
N          8.33500        5.50500        5.68100
C          8.03000        4.56800        4.60900
H          7.15700        4.91000        4.05400
H          7.86500        3.55800        4.98400
C          9.25900        4.58500        3.70400
H          9.01000        4.31200        2.67800
H         10.02200        3.91700        4.10900
C          9.72900        6.03400        3.81300
H          9.14000        6.65300        3.13300
H         10.79300        6.13100        3.59100
C          9.41800        6.39900        5.27000
H         10.29100        6.18100        5.88500
C          9.04700        7.88400        5.41800
O          7.96500        8.31800        5.02700
N          9.95100        8.69900        5.94200
H         10.82200        8.33200        6.28700
H          9.71000        9.67000        6.04900
