57
0 1
H          3.34800        9.81000       -1.76500
C          4.14900        9.95700       -1.04300
H          4.03000        9.24900       -0.22500
H          4.12100       10.97500       -0.65700
C          5.48700        9.71200       -1.71800
O          6.17600        8.77400       -1.32700
N          5.88600       10.53200       -2.71000
C          5.12900       11.64900       -3.25400
H          5.30400       12.53500       -2.64100
H          4.06100       11.43400       -3.30800
C          5.68500       11.86900       -4.65900
H          5.57400       12.90500       -4.98100
H          5.19600       11.19000       -5.35900
C          7.15200       11.47500       -4.49800
H          7.70400       12.31400       -4.07100
H          7.59600       11.17300       -5.44800
C          7.10200       10.31100       -3.50100
H          6.98800        9.37700       -4.05200
C          8.40200       10.23300       -2.68600
O          9.34500        9.56400       -3.10200
N          8.45200       10.86400       -1.50900
H          7.63000       11.37400       -1.20200
C          9.59600       10.80600       -0.59200
H         10.48600       11.07200       -1.16400
C          9.42900       11.86200        0.52000
H         10.40900       12.02000        0.97200
H          9.12600       12.81200        0.07500
C          8.45500       11.50100        1.66100
H          8.78800       10.58100        2.14200
H          8.49900       12.28800        2.41400
C          6.99500       11.34900        1.23900
O          6.51700       11.93200        0.27800
N          6.22400       10.54900        1.93800
H          5.27100       10.46200        1.63800
H          6.61100        9.99000        2.68200
C          9.86000        9.40300       -0.01000
O         10.92500        9.18100        0.55700
N          8.91600        8.46000       -0.13800
H          8.05000        8.69800       -0.60700
C          9.11400        7.05800        0.25700
H          9.70200        7.04100        1.17600
C          7.76200        6.38300        0.55100
H          7.21300        6.26700       -0.38500
H          7.95000        5.38500        0.94800
C          6.86700        7.14100        1.54300
H          6.48900        8.03200        1.04600
H          6.00600        6.51200        1.76800
S          7.61800        7.66400        3.11500
C          8.09400        6.05900        3.81200
H          8.84100        5.58500        3.17400
H          8.51900        6.20800        4.80500
H          7.21800        5.41500        3.88800
C          9.90700        6.23700       -0.78000
O         10.20000        5.07000       -0.54700
N         10.25100        6.79200       -1.93700
H         10.00300        7.75000       -2.14100
H         10.77400        6.23900       -2.59400
