55
0 1
H          8.90900        8.45300        4.15300
C          8.57800        9.47900        4.00500
H          8.55600       10.00500        4.95700
H          7.58100        9.48200        3.56800
C          9.53200       10.19000        3.06200
O          9.06900       10.73100        2.06100
N         10.85300       10.18700        3.33200
C         11.48300        9.58100        4.49700
H         11.65000        8.52000        4.30500
H         10.88400        9.71100        5.39900
C         12.82100       10.29800        4.65600
H         13.56700        9.66300        5.13700
H         12.68000       11.22200        5.21800
C         13.19500       10.62400        3.21200
H         13.63400        9.74000        2.74500
H         13.88400       11.46700        3.15300
C         11.84500       10.94900        2.56300
H         11.63700       12.01100        2.69900
C         11.87900       10.66100        1.05400
O         12.27400       11.52700        0.27900
N         11.41900        9.48300        0.61800
H         11.09500        8.81500        1.30800
C         11.27800        9.12800       -0.80000
H         12.25000        9.28200       -1.27000
C         10.93000        7.63100       -0.93800
H         11.08100        7.36500       -1.98600
H         11.63700        7.03800       -0.35600
C          9.48800        7.21800       -0.57100
H          8.76900        7.88500       -1.04500
H          9.31100        6.22200       -0.97500
C          9.19500        7.15100        0.92800
O          9.99700        7.35600        1.83100
O          7.92600        6.82500        1.23600
H          7.87400        6.80500        2.19000
C         10.28000       10.01600       -1.57400
O         10.27900        9.98500       -2.79900
N          9.44800       10.80700       -0.88400
H          9.46900       10.76600        0.12800
C          8.57300       11.81300       -1.49700
H          8.06900       11.34900       -2.34600
C          7.51500       12.21100       -0.44500
H          7.05100       11.30300       -0.05600
H          8.02300       12.70300        0.38600
C          6.39100       13.14500       -0.93200
H          5.74100       13.37100       -0.08800
H          6.80800       14.09100       -1.27600
C          5.52300       12.55000       -2.03900
O          5.53500       11.38700       -2.41700
O          4.64300       13.40600       -2.59100
H          4.20200       12.89700       -3.27100
C          9.34600       13.03600       -2.04300
O          8.79800       13.83600       -2.79100
N         10.61300       13.22500       -1.68900
H         11.10100       14.01600       -2.07400
H         11.08100       12.56800       -1.08000
