57
0 1
H          3.67700       12.61600        1.78700
C          4.33200       12.81300        0.94200
H          5.30500       13.14300        1.30500
H          3.88600       13.58400        0.31700
C          4.50500       11.53900        0.13400
O          3.90100       10.53300        0.49800
N          5.31500       11.54400       -0.94300
C          6.05100       12.69400       -1.45000
H          7.00800       12.76700       -0.93200
H          5.49100       13.62300       -1.33900
C          6.28200       12.40800       -2.93200
H          7.17600       12.90600       -3.30700
H          5.40300       12.70400       -3.50700
C          6.42500       10.88800       -2.95300
H          7.44300       10.61900       -2.66600
H          6.18500       10.47300       -3.93300
C          5.43200       10.42000       -1.88200
H          4.45800       10.26500       -2.34900
C          5.88500        9.08400       -1.27300
O          5.58200        8.03100       -1.82700
N          6.56100        9.10100       -0.11900
H          6.74100       10.00000        0.31600
C          6.97700        7.89700        0.61800
H          7.49900        7.25400       -0.09100
C          7.99000        8.27700        1.72000
H          8.54500        7.37800        1.99100
H          8.71000        8.98800        1.31200
C          7.38800        8.85700        3.01500
H          6.81500        8.07900        3.52000
H          8.19800        9.15100        3.68300
C          6.49800       10.07200        2.78000
O          6.82500       10.98300        2.03600
N          5.31700       10.10800        3.35400
H          5.00700        9.35000        3.93500
H          4.71200       10.86300        3.08400
C          5.80300        7.05800        1.16900
O          6.03400        5.99100        1.72700
N          4.55400        7.51600        1.01700
H          4.43100        8.43600        0.61300
C          3.34600        6.70800        1.24200
H          3.41200        6.26200        2.23500
C          2.11300        7.63300        1.21800
H          1.23400        7.07100        1.53500
H          2.27500        8.42900        1.94600
C          1.82200        8.28300       -0.14600
H          1.28400        9.21300        0.03400
H          2.76300        8.53700       -0.63300
S          0.82800        7.29700       -1.29800
C          1.00300        8.31300       -2.78600
H          0.44500        7.85500       -3.60300
H          0.61100        9.31200       -2.59600
H          2.05600        8.37800       -3.06200
C          3.19000        5.54100        0.24500
O          2.45500        4.59800        0.51400
N          3.86900        5.55900       -0.89800
H          4.46500        6.34200       -1.12700
H          3.75300        4.78500       -1.53000
