57
0 1
H         11.57500        4.30700       -5.59600
C         10.60500        4.75500       -5.80500
H          9.96800        4.04000       -6.32300
H         10.74200        5.63700       -6.42800
C          9.94900        5.16600       -4.50000
O          9.68800        6.35400       -4.32400
N          9.66400        4.21900       -3.58800
C          9.88400        2.78700       -3.74100
H         10.91000        2.57100       -4.04000
H          9.18400        2.39000       -4.47800
C          9.59700        2.16500       -2.37400
H         10.51600        2.12700       -1.78700
H          9.16400        1.16800       -2.46700
C          8.61600        3.15200       -1.74000
H          8.64500        3.11100       -0.65100
H          7.60700        2.93800       -2.09800
C          9.06900        4.51200       -2.28500
H          8.19300        5.14900       -2.41100
C         10.07300        5.21300       -1.35500
O         11.04200        4.61000       -0.89700
N          9.83000        6.49100       -1.06300
H          9.04300        6.92000       -1.53900
C         10.65800        7.32700       -0.17200
H         11.02900        6.69300        0.63400
C         11.88600        7.85300       -0.94600
H         12.51100        8.43900       -0.27200
H         12.48100        6.99200       -1.25400
C         11.58700        8.68200       -2.20800
H         12.53400        8.85000       -2.72200
H         10.97000        8.08200       -2.87500
S         10.78400       10.30200       -2.00500
C         12.04500       11.19900       -1.06100
H         12.18100       10.73300       -0.08500
H         12.98900       11.19000       -1.60500
H         11.72200       12.23000       -0.91600
C          9.88900        8.47500        0.51400
O         10.47200        9.23600        1.28400
N          8.58800        8.61400        0.24700
H          8.15800        7.91200       -0.34200
C          7.75700        9.78800        0.54700
H          8.37100       10.67400        0.38200
C          6.57500        9.85000       -0.45000
H          5.92300        8.98800       -0.30000
H          5.99300       10.74500       -0.22400
C          6.97600        9.94200       -1.94000
H          6.09900       10.24200       -2.51300
H          7.72600       10.72500       -2.05500
C          7.50300        8.64400       -2.55800
O          7.33900        7.55000       -2.03900
N          8.20800        8.71100       -3.66200
H          8.62300        7.84500       -4.00000
H          8.43800        9.59600       -4.07200
C          7.29400        9.86800        2.02200
O          6.16800       10.25000        2.32100
N          8.13000        9.48400        2.97600
H          9.07400        9.22100        2.72700
H          7.82400        9.52900        3.93300
