64
0 1
H         10.50100        2.51000        6.42200
C         10.03000        1.53100        6.49200
H          9.32400        1.53000        7.32200
H         10.78200        0.76300        6.65600
C          9.27300        1.24600        5.20800
O          8.05100        1.18800        5.25100
N          9.95900        1.02800        4.06800
C         11.40100        1.15100        3.90400
H         11.87900        0.20900        4.17600
H         11.81100        1.96800        4.49800
C         11.61900        1.43300        2.41900
H         12.59300        1.08200        2.07700
H         11.50200        2.50100        2.22500
C         10.47400        0.66300        1.76500
H         10.74600       -0.39200        1.68700
H         10.22400        1.06500        0.78200
C          9.31900        0.83800        2.75700
H          8.77800        1.75300        2.50900
C          8.32800       -0.33500        2.66000
O          7.50000       -0.36500        1.75400
N          8.37000       -1.27800        3.60700
H          9.02800       -1.15900        4.35900
C          7.38100       -2.35200        3.76000
H          7.31100       -2.90600        2.82300
C          7.87800       -3.30800        4.85500
H          7.13400       -4.09300        4.99900
H          8.79100       -3.79100        4.50500
C          8.15400       -2.66800        6.18500
C          9.37700       -2.33800        6.66100
H         10.31200       -2.53300        6.15000
N          9.24600       -1.72300        7.89000
H         10.02700       -1.41700        8.45300
C          7.92500       -1.62300        8.27100
C          7.29500       -1.07700        9.39800
H          7.87200       -0.60000       10.17500
C          5.89600       -1.15900        9.50200
H          5.38300       -0.72900       10.35200
C          5.15500       -1.79900        8.49300
H          4.07800       -1.85900        8.58300
C          5.79800       -2.33800        7.36300
H          5.21000       -2.82300        6.59700
C          7.20000       -2.24900        7.21300
C          5.96100       -1.83700        4.06800
O          5.00300       -2.58700        3.90700
N          5.80000       -0.56600        4.46100
H          6.62800       -0.01000        4.64600
C          4.49600        0.09200        4.59900
H          3.86600       -0.53600        5.22900
C          4.68400        1.46900        5.27100
H          5.56300        1.95400        4.84600
H          3.83500        2.11700        5.04700
C          4.83900        1.38700        6.79900
H          5.58000        0.62800        7.04600
H          5.21600        2.34700        7.14900
C          3.54400        1.09700        7.56800
O          3.51800        1.08900        8.78600
N          2.40900        0.87500        6.93300
H          2.35400        0.89400        5.92800
H          1.61100        0.70500        7.51700
C          3.73600        0.27500        3.27200
O          2.55500        0.60400        3.30000
N          4.36600        0.10200        2.11400
H          3.84200        0.21400        1.26300
H          5.34100       -0.16300        2.09700
