53
0 1
H          6.77100        0.33100       13.16700
C          6.98800        0.93900       12.29100
H          8.02900        1.25900       12.32300
H          6.34500        1.81700       12.27300
C          6.76200        0.12400       11.03200
O          7.66700        0.05900       10.20400
N          5.56800       -0.47400       10.84400
C          4.40300       -0.35600       11.71100
H          4.23800        0.67500       12.02700
H          4.53200       -1.00100       12.58100
C          3.21700       -0.84200       10.87800
H          2.82400       -0.02000       10.27600
H          2.43300       -1.27300       11.50100
C          3.86000       -1.88700        9.96800
H          3.27000       -2.06000        9.06700
H          3.98400       -2.82100       10.51900
C          5.24000       -1.29000        9.66400
H          5.96700       -2.09600        9.56000
C          5.23600       -0.48800        8.35000
O          5.23000       -1.06200        7.26200
N          5.24500        0.84300        8.43300
H          5.18900        1.25000        9.35600
C          5.73800        1.74100        7.39300
H          6.30200        1.15500        6.67000
C          4.58000        2.42800        6.64700
H          3.98500        3.01900        7.34600
H          5.01800        3.11600        5.92200
C          3.67100        1.45100        5.87900
H          3.17700        2.00200        5.07800
H          4.27100        0.66900        5.41300
C          2.56600        0.84400        6.74400
O          1.70800        1.51000        7.30600
O          2.58300       -0.51000        6.82900
H          3.45100       -0.85800        6.58500
C          6.67200        2.76500        8.07200
O          6.32300        3.24600        9.15100
N          7.84400        3.10000        7.49600
C          8.75600        4.07000        8.08800
H          8.94200        3.84700        9.14000
H          8.33200        5.07000        7.99000
C         10.05400        3.97600        7.28900
H         10.69800        3.20600        7.71700
H         10.57300        4.93400        7.24500
C          9.56000        3.53200        5.91300
H         10.35100        3.05400        5.33300
H          9.16700        4.39500        5.37300
C          8.41100        2.57300        6.24800
H          7.67100        2.62300        5.44900
C          8.91900        1.11700        6.33200
O          9.27500        0.54500        5.31200
N          8.95300        0.48100        7.49700
H          9.27000       -0.47500        7.50500
H          8.64200        0.91900        8.35200
