58
0 1
H          4.64500        8.36900        5.18400
C          4.52400        7.92500        4.19700
H          5.46000        8.00800        3.64600
H          3.72900        8.44000        3.66200
C          4.16500        6.46000        4.35500
O          4.10500        5.98400        5.48600
N          3.90400        5.72600        3.26100
C          3.93300        6.18600        1.88000
H          4.83300        6.76500        1.67000
H          3.04300        6.78200        1.67800
C          3.91600        4.92000        1.02200
H          4.93800        4.57800        0.85200
H          3.40200        5.08200        0.07300
C          3.17500        3.91500        1.90500
H          3.42700        2.88500        1.64700
H          2.10000        4.07600        1.81700
C          3.63300        4.29000        3.31900
H          2.81800        4.11200        4.01800
C          4.88200        3.48600        3.74500
O          6.00300        3.89800        3.44500
N          4.71800        2.31800        4.39900
C          5.83100        1.43000        4.71200
H          6.63100        1.96100        5.22600
H          6.21200        0.99300        3.78800
C          5.26000        0.33200        5.60600
H          5.30600        0.64400        6.65100
H          5.77900       -0.61600        5.46300
C          3.80500        0.26300        5.14400
H          3.16200       -0.18900        5.90000
H          3.74600       -0.30300        4.21300
C          3.45800        1.73200        4.87300
H          2.69300        1.77800        4.09800
C          2.89400        2.38900        6.15000
O          1.77600        2.07600        6.54100
N          3.65400        3.26900        6.80700
H          4.55200        3.51000        6.41300
C          3.38400        3.76900        8.16200
H          3.21300        2.91000        8.81200
C          4.63400        4.51300        8.66400
H          4.63100        5.52300        8.25000
H          4.57300        4.61000        9.74900
C          5.95100        3.84900        8.29700
C          6.38400        2.70200        8.99000
H          5.79900        2.31700        9.81500
C          7.57100        2.05200        8.60200
H          7.91300        1.17100        9.12300
C          8.32800        2.54900        7.52000
O          9.46200        1.90800        7.13800
H          9.91400        2.37200        6.43200
C          7.89400        3.69900        6.82500
H          8.45900        4.07600        5.98600
C          6.70500        4.34300        7.21300
H          6.36400        5.21600        6.67000
C          2.14900        4.68000        8.28300
O          1.53200        4.75700        9.33900
N          1.77200        5.39200        7.23000
H          2.34900        5.38500        6.40100
H          0.95900        5.97700        7.31300
