56
0 1
H          8.85900       13.69000        4.68600
C          8.35600       12.86100        5.18400
H          7.34400       12.77600        4.79200
H          8.32600       13.05500        6.25300
C          9.12400       11.58000        4.90500
O         10.17600       11.66000        4.27600
N          8.64700       10.40800        5.36500
C          9.22500        9.12500        4.99700
H          9.92000        8.80300        5.77400
H          9.73500        9.16900        4.03300
C          8.04100        8.17000        4.91900
H          8.34500        7.13200        5.06500
H          7.52500        8.29500        3.96600
C          7.15800        8.67300        6.05900
H          7.50800        8.23300        6.99400
H          6.11000        8.42100        5.89700
C          7.37700       10.19500        6.07000
H          6.57500       10.66000        5.49700
C          7.31400       10.72500        7.51300
O          6.21600       10.93500        8.01600
N          8.45300       10.93600        8.19000
H          9.32900       10.73300        7.71900
C          8.49800       11.23700        9.63800
H          7.50300       11.53800        9.97000
C          8.87700        9.96600       10.42100
H          9.84700        9.60500       10.07600
H          8.96400       10.21800       11.47800
C          7.84300        8.84100       10.28200
H          6.86700        9.21300       10.59800
H          7.77100        8.56200        9.23300
S          8.22400        7.33300       11.21700
C          7.93700        7.90000       12.91500
H          8.64800        8.68500       13.17200
H          6.92100        8.28400       13.00700
H          8.06900        7.06300       13.60100
C          9.42700       12.39900       10.04200
O          9.44400       12.78600       11.20700
N         10.19700       12.97200        9.11200
H         10.14900       12.58700        8.18000
C         11.22100       14.00100        9.37600
H         11.72200       13.72300       10.30500
C         12.29900       14.00400        8.26800
H         11.88400       14.43800        7.35500
H         13.10900       14.65500        8.59900
C         12.91000       12.62800        7.94200
H         13.91600       12.77700        7.54900
H         12.98300       12.02000        8.84400
C         12.09200       11.89600        6.88500
O         11.14700       11.15500        7.13800
O         12.40900       12.21000        5.61400
H         11.71500       11.85100        5.03200
C         10.63800       15.41500        9.62100
O         11.12000       16.40500        9.08500
N          9.57000       15.54400       10.39700
H          9.19100       16.46400       10.54500
H          9.19900       14.73000       10.86900
