63
0 1
H          8.01000        8.04000        4.61500
C          8.67600        7.18400        4.69200
H          8.46900        6.65500        5.62100
H          9.71300        7.51400        4.68700
C          8.43900        6.24500        3.52300
O          8.21800        5.05800        3.74400
N          8.47600        6.73900        2.27200
C          8.86500        8.08800        1.89200
H          9.78800        8.39400        2.38700
H          8.05800        8.78100        2.13400
C          9.06900        8.03900        0.37900
H         10.08100        7.69700        0.15400
H          8.87500        9.00500       -0.08800
C          8.05600        6.98100       -0.06000
H          8.33300        6.52600       -1.01200
H          7.06800        7.43700       -0.13600
C          8.06000        5.97100        1.09400
H          7.04500        5.60000        1.24400
C          8.95100        4.75900        0.78200
O          8.48700        3.81700        0.14700
N         10.20800        4.74000        1.24400
H         10.50800        5.50500        1.82800
C         11.09500        3.57600        1.08200
H         10.98100        3.22200        0.05500
C         12.58400        3.96200        1.23800
H         13.16200        3.05300        1.41500
H         12.92600        4.36700        0.28400
C         12.94900        4.99000        2.32500
H         14.02700        4.96300        2.48500
H         12.68500        5.98700        1.97200
C         12.25200        4.75700        3.65600
O         11.41600        5.51800        4.12100
O         12.56000        3.59900        4.26900
H         11.98600        3.50700        5.03800
C         10.69900        2.36200        1.95000
O         11.19700        1.26800        1.70300
N          9.78400        2.51600        2.91700
H          9.40500        3.43800        3.09900
C          9.17800        1.38800        3.64000
H          9.92700        0.60400        3.75600
C          8.76200        1.84300        5.04600
H          7.98300        2.60100        4.95600
H          8.32600        0.99200        5.57000
C          9.87000        2.38000        5.90400
C         10.03500        3.67400        6.25200
H          9.37800        4.47900        5.94200
N         11.15600        3.80700        7.04800
H         11.45100        4.68700        7.44700
C         11.76800        2.59100        7.26600
C         12.90800        2.21100        7.98800
H         13.48700        2.94600        8.52500
C         13.28700        0.85700        7.99900
H         14.16300        0.54200        8.54900
C         12.52400       -0.09000        7.29200
H         12.82000       -1.13100        7.30200
C         11.38000        0.30400        6.57100
H         10.80300       -0.43300        6.03100
C         10.97100        1.65500        6.53800
C          7.99500        0.74300        2.88800
O          7.42100       -0.23300        3.35600
N          7.59200        1.25400        1.73000
H          8.06000        2.05500        1.33000
H          6.82500        0.81000        1.25600
