54
0 1
H          8.68300       13.23500        6.69900
C          9.45200       13.03300        5.95600
H          9.90400       12.06300        6.15300
H         10.21900       13.80400        5.98600
C          8.81400       13.00900        4.57900
O          8.80900       11.94600        3.95900
N          8.28500       14.14500        4.08500
C          8.20700       15.42600        4.77000
H          9.17200       15.93000        4.70200
H          7.91300       15.30800        5.81400
C          7.14700       16.22900        4.01900
H          7.33400       17.30200        4.07800
H          6.15700       15.98700        4.41100
C          7.27800       15.70500        2.59000
H          8.12400       16.19100        2.10100
H          6.36200       15.85500        2.01700
C          7.57100       14.21800        2.81000
H          6.62100       13.71100        2.94600
C          8.36500       13.60100        1.64100
O          9.54700       13.92000        1.49800
N          7.75300       12.75200        0.78500
C          8.43700       12.21200       -0.38300
H          8.79100       11.20400       -0.16100
H          9.27300       12.83800       -0.69900
C          7.38300       12.16500       -1.48200
H          7.62400       11.42700       -2.24700
H          7.25800       13.15700       -1.91900
C          6.13500       11.78300       -0.69200
H          6.12700       10.70100       -0.54200
H          5.22400       12.09900       -1.20100
C          6.30800       12.50100        0.65600
H          5.80600       13.46700        0.59000
C          5.60700       11.68900        1.76300
O          4.38400       11.59100        1.72500
N          6.32000       11.10900        2.73500
H          7.31900       11.27800        2.79200
C          5.68600       10.43700        3.87800
H          4.84800        9.85500        3.49200
C          6.68600        9.45400        4.52100
H          7.06900        8.79100        3.74400
H          7.52600       10.01200        4.93000
C          6.11100        8.58600        5.65300
H          6.88600        7.90300        5.99900
H          5.83200        9.22000        6.49500
C          4.89400        7.78000        5.21600
O          3.76200        8.21800        5.32500
N          5.06800        6.59500        4.67600
H          5.98700        6.21200        4.55600
H          4.23100        6.11600        4.39400
C          5.10700       11.45300        4.88500
O          5.67100       12.51800        5.12500
N          3.98500       11.13500        5.51600
H          3.54700       10.23800        5.34600
H          3.59600       11.79600        6.16600
