57
0 1
H          2.66000       15.60700        0.82300
C          2.90000       14.58900        1.12400
H          2.68800       14.46300        2.18500
H          3.95500       14.38900        0.94800
C          2.05900       13.61000        0.32700
O          1.34400       12.81700        0.93600
N          2.11600       13.63000       -1.01700
C          3.01000       14.45200       -1.82100
H          4.03200       14.42200       -1.44200
H          2.64200       15.47800       -1.83900
C          2.95600       13.85700       -3.22800
H          3.68100       13.04600       -3.31200
H          3.13300       14.61300       -3.99300
C          1.53700       13.29400       -3.30100
H          1.45200       12.50500       -4.04900
H          0.83800       14.10100       -3.52500
C          1.28100       12.78100       -1.87800
H          0.22900       12.92400       -1.62900
C          1.59000       11.27800       -1.76100
O          0.75700       10.45100       -2.11600
N          2.77000       10.92200       -1.24800
H          3.39700       11.67000       -0.97200
C          3.18500        9.55500       -0.90100
H          2.48200        8.85200       -1.35000
C          4.57500        9.26200       -1.51700
H          4.96100        8.33700       -1.08800
H          4.43900        9.07800       -2.58400
C          5.65300       10.35800       -1.37000
H          6.63800        9.91100       -1.50600
H          5.51000       11.09400       -2.16200
C          5.60700       11.09200       -0.03600
O          5.02500       12.16100        0.06700
N          6.11500       10.51300        1.02600
H          6.51600        9.59500        0.97100
H          5.91000       10.93700        1.92700
C          3.13200        9.27200        0.61900
O          3.53700        8.19600        1.05200
N          2.66300       10.22900        1.43100
H          2.33400       11.08500        1.00300
C          2.61600       10.17500        2.89900
H          2.41800       11.19000        3.24400
C          1.43200        9.30800        3.37900
H          1.52700        8.30700        2.95700
H          1.46600        9.21900        4.46600
C          0.05900        9.87900        2.98200
H          0.03600       10.12000        1.91900
H         -0.69800        9.11600        3.16400
C         -0.31300       11.10600        3.80700
O         -0.74500       11.01100        4.94100
N         -0.14900       12.30500        3.29500
H         -0.41500       13.07300        3.88100
H          0.25200       12.43100        2.37100
C          3.97700        9.81900        3.53500
O          4.86800       10.66100        3.60000
N          4.18000        8.59500        4.00400
H          3.47300        7.89000        3.87700
H          5.07400        8.37900        4.41100
