64
0 1
H          4.16500        4.56800        0.50400
C          5.21700        4.82000        0.61400
H          5.37400        5.87900        0.41800
H          5.79700        4.23400       -0.09800
C          5.68900        4.49200        2.01700
O          6.68700        3.79500        2.16100
N          4.97600        4.93000        3.07400
C          3.82200        5.81600        3.02000
H          2.92100        5.22900        2.83600
H          3.93500        6.58400        2.25300
C          3.74500        6.46800        4.39900
H          2.72300        6.74500        4.66100
H          4.40300        7.33800        4.43300
C          4.29200        5.37400        5.31500
H          3.50200        4.64900        5.52400
H          4.68800        5.78400        6.24400
C          5.39300        4.72700        4.46800
H          6.32400        5.27200        4.62700
C          5.62500        3.26300        4.88200
O          6.35400        3.00500        5.83500
N          5.06000        2.29600        4.14800
H          4.50300        2.57400        3.35700
C          5.30500        0.86100        4.34700
H          5.11400        0.63500        5.39700
C          4.30000        0.05500        3.50000
H          4.27500       -0.97600        3.85600
H          3.30500        0.46400        3.68400
C          4.56000        0.08500        1.97600
H          3.60500        0.25500        1.47800
H          5.21000        0.92300        1.72200
C          5.15700       -1.19300        1.37300
O          4.96100       -1.48800        0.20600
N          5.91400       -1.99800        2.08700
H          6.24100       -2.82700        1.62500
H          6.20300       -1.76100        3.03100
C          6.75800        0.42600        4.06300
O          7.10200       -0.71800        4.35200
N          7.59100        1.28900        3.47200
H          7.22200        2.18200        3.16100
C          9.02400        1.05800        3.23700
H          9.20100       -0.01200        3.12900
C          9.42100        1.74100        1.91600
H          9.38900        2.82100        2.06400
H         10.45100        1.47200        1.68100
C          8.56800        1.40900        0.72300
C          7.97000        0.22000        0.48700
H          8.04200       -0.64500        1.13400
N          7.20400        0.29600       -0.65800
H          6.57900       -0.45000       -0.95300
C          7.32300        1.52700       -1.26400
C          6.76800        2.07900       -2.42800
H          6.10400        1.49200       -3.04300
C          7.10300        3.39600       -2.78700
H          6.69400        3.83300       -3.68700
C          7.97600        4.14300       -1.97500
H          8.23400        5.15500       -2.25500
C          8.51600        3.58200       -0.80000
H          9.17600        4.16600       -0.17600
C          8.20600        2.26000       -0.41200
C          9.91400        1.52600        4.40400
O         11.12400        1.33500        4.37700
N          9.36100        2.14200        5.44400
H          8.36400        2.30100        5.47500
H          9.96000        2.43400        6.19800
