64
0 1
H          6.43700        7.06300        6.21200
C          7.06400        6.41100        6.81900
H          6.45200        5.69000        7.35600
H          7.61700        7.02100        7.53100
C          8.04700        5.68200        5.92000
O          9.24100        5.74500        6.20000
N          7.58800        4.99000        4.85700
C          6.18500        4.72500        4.56700
H          5.83000        5.43300        3.81700
H          5.55500        4.77300        5.45500
C          6.16200        3.31000        4.00100
H          5.28500        3.13500        3.37700
H          6.21100        2.58500        4.81600
C          7.45500        3.27100        3.19200
H          7.27000        3.70900        2.20900
H          7.83200        2.25300        3.08500
C          8.43100        4.15100        3.98900
H          9.04000        3.50800        4.62500
C          9.37600        4.88900        3.02200
O         10.12500        4.23800        2.30000
N          9.34700        6.22500        2.95600
H          8.72700        6.71400        3.59300
C         10.06400        7.03900        1.94900
H          9.79300        6.63600        0.97200
C          9.55700        8.49800        1.98800
H          9.92000        9.00800        1.09400
H          8.46700        8.49800        1.93500
C         10.00600        9.32000        3.21300
H         11.09500        9.37100        3.24000
H          9.62900       10.33800        3.11500
C          9.48200        8.74200        4.52000
O          8.32200        8.38200        4.64100
N         10.31700        8.54100        5.51400
H         11.28100        8.80500        5.43900
H          9.95300        8.00300        6.28600
C         11.60800        6.97600        2.00300
O         12.27000        7.62700        1.20100
N         12.19400        6.21400        2.93000
H         11.59400        5.67800        3.54000
C         13.61900        5.85200        2.93200
H         14.21400        6.71200        2.62100
C         14.01700        5.47800        4.36800
H         15.04000        5.09900        4.36900
H         14.00900        6.38500        4.97200
C         13.12700        4.46400        5.02600
C         12.11700        4.76100        5.87200
H         11.84600        5.76000        6.19300
N         11.44800        3.61000        6.22500
H         10.62900        3.61900        6.81700
C         11.99700        2.49800        5.62700
C         11.67300        1.13400        5.66300
H         10.84000        0.78600        6.25400
C         12.45100        0.22900        4.92200
H         12.21900       -0.82700        4.93700
C         13.53800        0.69800        4.16200
H         14.13700       -0.00200        3.59500
C         13.85300        2.07100        4.13200
H         14.69200        2.41600        3.54300
C         13.08800        3.01000        4.85900
C         13.95800        4.70900        1.95400
O         15.12600        4.45200        1.68900
N         12.97900        3.99700        1.40800
H         13.22400        3.25000        0.78200
H         12.01600        4.17200        1.66300
