54
0 1
H         10.22300        1.97400        1.35000
C         11.04100        2.68900        1.27800
H         10.77300        3.47700        0.57700
H         11.94100        2.17800        0.94300
C         11.28400        3.30000        2.64600
O         10.54600        2.98500        3.57500
N         12.30600        4.15700        2.80900
C         13.23000        4.61500        1.78100
H         12.70700        4.88400        0.86300
H         13.96700        3.83500        1.58300
C         13.92000        5.84500        2.36900
H         13.32900        6.73600        2.15100
H         14.93700        5.95700        1.99200
C         13.89700        5.56600        3.87200
H         13.96400        6.48600        4.45500
H         14.71800        4.89400        4.12900
C         12.56200        4.84100        4.07400
H         12.67400        4.09400        4.85900
C         11.42500        5.82300        4.43800
O         10.79600        6.37900        3.53700
N         11.18400        6.10200        5.73700
C         10.32200        7.19500        6.16000
H          9.33700        6.80500        6.41800
H         10.22800        7.96400        5.39200
C         11.00100        7.77300        7.39600
H         10.29100        8.28600        8.04600
H         11.80700        8.44300        7.09300
C         11.58400        6.52600        8.05900
H         10.82200        6.07200        8.69400
H         12.46500        6.76700        8.65400
C         11.93500        5.59100        6.89000
H         13.00300        5.68000        6.69000
C         11.63200        4.13500        7.28100
O         12.50100        3.48300        7.85000
N         10.42100        3.63100        7.01200
H          9.75600        4.22800        6.54200
C          9.90600        2.39400        7.63100
H         10.75000        1.71700        7.76900
C          9.34700        2.71900        9.03500
H          9.22300        1.77900        9.57300
H         10.07700        3.31100        9.58900
C          7.99300        3.45000        9.05500
H          7.26000        2.85800        8.50700
H          7.65900        3.49500       10.09200
S          7.97800        5.14300        8.40000
C          6.21300        5.51500        8.57200
H          6.01800        6.52600        8.21400
H          5.63000        4.80600        7.98500
H          5.92400        5.44300        9.62100
C          8.88500        1.60900        6.78000
O          8.17000        0.75400        7.28900
N          8.76200        1.87800        5.48900
H          8.09100        1.35200        4.95600
H          9.39900        2.51500        5.02800
