61
0 1
H         13.44500       -7.89400       -8.69100
C         14.09500       -7.05800       -8.43600
H         13.78000       -6.17300       -8.98600
H         15.12100       -7.31300       -8.69400
C         14.00000       -6.79300       -6.94500
O         13.21400       -7.46300       -6.28200
N         14.75200       -5.81700       -6.40100
C         15.66700       -4.95400       -7.13900
H         15.16300       -4.45100       -7.96500
H         16.50300       -5.54800       -7.51300
C         16.18200       -3.92400       -6.13300
H         15.49900       -3.07400       -6.09100
H         17.19400       -3.59700       -6.37100
C         16.12700       -4.69500       -4.81700
H         16.12600       -4.03000       -3.95300
H         16.98100       -5.37200       -4.75900
C         14.83800       -5.51800       -4.96400
H         14.96800       -6.45100       -4.42000
C         13.58500       -4.82700       -4.37600
O         13.68400       -3.98400       -3.48900
N         12.38800       -5.17700       -4.85400
H         12.36800       -5.93500       -5.52600
C         11.09800       -4.59800       -4.43500
H         11.15300       -3.51600       -4.56000
C          9.99900       -5.13300       -5.36900
H          9.07800       -4.57600       -5.19300
H         10.30400       -4.95600       -6.40000
C          9.70900       -6.63000       -5.17000
H         10.64700       -7.17800       -5.08300
H          9.16200       -6.75200       -4.23400
S          8.73900       -7.39700       -6.49500
C         10.01700       -7.58400       -7.76700
H          9.58600       -8.06900       -8.64300
H         10.40500       -6.60700       -8.05300
H         10.83000       -8.20000       -7.38100
C         10.74400       -4.85900       -2.95800
O          9.88100       -4.18900       -2.40300
N         11.41700       -5.82100       -2.32500
H         12.11800       -6.31700       -2.85300
C         11.34700       -6.12400       -0.89200
H         10.31400       -6.01700       -0.55700
C         11.77000       -7.59100       -0.70400
H         11.81700       -7.82300        0.36100
H         10.99700       -8.22900       -1.13400
C         13.10200       -7.93600       -1.35200
C         14.30800       -7.64000       -0.68700
H         14.28300       -7.20300        0.30400
C         15.54300       -7.89900       -1.31200
H         16.46400       -7.66000       -0.80300
C         15.57200       -8.45900       -2.60800
O         16.75700       -8.68700       -3.23000
H         17.49700       -8.60300       -2.62700
C         14.36400       -8.76100       -3.27100
H         14.39500       -9.18500       -4.26500
C         13.13200       -8.50100       -2.64300
H         12.21000       -8.73400       -3.15900
C         12.19800       -5.17600       -0.01700
O         12.23300       -5.32000        1.20000
N         12.92400       -4.22000       -0.58600
H         13.46100       -3.61200        0.00700
H         12.93000       -4.10800       -1.59100
