56
0 1
H         13.58600        3.37600       -5.96100
C         14.14000        4.24000       -5.59900
H         13.44600        4.95600       -5.16100
H         14.67900        4.70000       -6.42400
C         15.12400        3.78700       -4.53600
O         15.16000        2.59700       -4.23500
N         15.92800        4.69700       -3.95500
C         15.98700        6.11400       -4.29600
H         15.00000        6.57600       -4.25800
H         16.41600        6.22800       -5.29300
C         16.90900        6.76100       -3.26300
H         16.32600        7.08500       -2.40000
H         17.46600        7.59700       -3.68700
C         17.82900        5.60600       -2.86700
H         18.30100        5.76800       -1.89700
H         18.59500        5.47600       -3.63400
C         16.88300        4.39600       -2.88300
H         17.45300        3.50100       -3.13400
C         16.16200        4.15100       -1.54200
O         16.26700        4.94700       -0.61000
N         15.37700        3.06800       -1.46900
H         15.34100        2.51100       -2.31800
C         14.36700        2.73900       -0.44500
H         13.90300        1.80600       -0.76800
C         15.04200        2.43800        0.91100
H         15.73300        1.60800        0.76200
H         15.62600        3.29600        1.24500
C         14.05600        2.04200        2.02700
H         13.29600        1.37300        1.62300
H         14.60500        1.49200        2.79100
C         13.39700        3.23700        2.71800
O         14.04200        4.14100        3.23000
N         12.08500        3.31200        2.74800
H         11.67300        4.11400        3.20400
H         11.53000        2.67300        2.20400
C         13.20600        3.74700       -0.35000
O         12.04800        3.34000       -0.30900
N         13.50200        5.04500       -0.31200
H         14.48600        5.28800       -0.34900
C         12.53300        6.13600       -0.37500
H         11.63700        5.84200        0.17200
C         13.13700        7.38500        0.29300
H         14.07000        7.64500       -0.21100
H         12.44800        8.22400        0.17900
C         13.42100        7.17500        1.79300
H         14.13600        6.36400        1.92100
H         13.87800        8.07900        2.19500
C         12.15200        6.89100        2.59700
O         11.04500        7.31400        2.28700
O         12.32900        6.12900        3.70500
H         13.17200        5.64300        3.67100
C         12.10600        6.43200       -1.82300
O         12.87500        6.27400       -2.76700
N         10.88300        6.90500       -2.01700
H         10.59300        7.10500       -2.96000
H         10.26000        7.03600       -1.23600
