61
0 1
H         15.09300       12.28100        6.56400
C         15.90000       11.55800        6.46700
H         16.69100       11.78100        7.18000
H         16.30400       11.60000        5.45600
C         15.36400       10.16100        6.72500
O         15.42900        9.33300        5.82100
N         14.83500        9.87700        7.93000
C         14.74500       10.79900        9.05600
H         14.23600       11.72200        8.77500
H         15.74800       11.01900        9.42500
C         13.94900       10.07100       10.14000
H         12.88300       10.26500       10.00900
H         14.27200       10.35800       11.14100
C         14.24800        8.60200        9.84500
H         13.49100        7.93600       10.26200
H         15.22900        8.34500       10.24800
C         14.30300        8.56500        8.31200
H         14.99900        7.78300        8.00500
C         12.94300        8.27400        7.64500
O         11.89700        8.25700        8.29300
N         12.94700        8.07600        6.32600
H         13.83600        8.15200        5.84400
C         11.75600        7.71500        5.55500
H         10.95800        8.40400        5.83400
C         12.03800        7.90600        4.05500
H         12.26000        8.95700        3.87000
H         12.91800        7.32200        3.78000
C         10.87500        7.47300        3.14900
H         11.12400        7.73900        2.12200
H         10.79300        6.38700        3.19000
S          9.24200        8.16800        3.54200
C          9.52400        9.93400        3.24900
H         10.27600       10.31100        3.94200
H          9.86000       10.08800        2.22400
H          8.59100       10.47700        3.40700
C         11.28100        6.29100        5.88600
O         12.05400        5.33600        5.83700
N          9.98600        6.14900        6.16500
H          9.41300        6.97900        6.12300
C          9.28500        4.90700        6.52300
H          9.91900        4.35200        7.21600
C          7.99800        5.29300        7.28200
H          7.35600        4.41900        7.40200
H          8.28500        5.60600        8.28700
C          7.20600        6.42400        6.64300
C          7.39300        7.74900        7.08900
H          8.06200        7.95400        7.91500
C          6.72000        8.80900        6.45300
H          6.86000        9.82800        6.78300
C          5.85700        8.54800        5.37000
O          5.22100        9.57700        4.75100
H          4.66800        9.26900        4.03300
C          5.65900        7.22100        4.93000
H          5.00100        7.01500        4.10100
C          6.33400        6.16300        5.56800
H          6.19400        5.14600        5.22300
C          9.04400        3.95800        5.32300
O          7.99800        3.33200        5.19000
N          9.99600        3.83600        4.40900
H         10.88200        4.30100        4.55700
H          9.83900        3.21900        3.63100
