59
0 1
H          7.02100        4.80700       -4.44700
C          7.48100        3.82500       -4.52900
H          8.34100        3.86700       -5.19400
H          6.75300        3.11700       -4.92400
C          7.92500        3.35800       -3.15400
O          7.43100        2.33300       -2.69600
N          8.83900        4.08300       -2.48100
C          9.49500        5.28800       -2.97500
H          8.76700        6.04500       -3.26800
H         10.13400        5.03100       -3.82100
C         10.35600        5.80700       -1.82200
H          9.77300        6.49300       -1.20500
H         11.26500        6.29000       -2.18200
C         10.66400        4.53500       -1.03300
H         10.94600        4.74700       -0.00100
H         11.46500        3.98600       -1.53100
C          9.35500        3.74100       -1.15100
H          9.58300        2.67600       -1.10800
C          8.33400        4.04800       -0.03500
O          8.55700        4.89800        0.82600
N          7.17800        3.38100       -0.07300
H          7.05900        2.69800       -0.81300
C          6.11800        3.51400        0.92900
H          5.95300        4.57600        1.11100
C          4.81100        2.89300        0.39900
H          4.97800        1.82500        0.24800
H          4.04200        3.00400        1.16400
C          4.28400        3.49500       -0.91900
H          5.02300        3.36100       -1.70800
C          3.00500        2.76900       -1.33700
H          2.65000        3.16700       -2.28700
H          3.21300        1.70600       -1.46200
H          2.23200        2.89900       -0.57900
C          3.96400        4.98700       -0.79500
H          4.87800        5.55000       -0.60700
H          3.52900        5.34800       -1.72700
H          3.25900        5.15400        0.01900
C          6.52700        2.88300        2.27100
O          7.18500        1.84300        2.31200
N          6.10300        3.49800        3.37800
H          5.55300        4.34000        3.29200
C          6.38800        3.03300        4.73700
H          6.34400        1.94300        4.73100
C          7.81700        3.48200        5.11900
H          8.50500        3.17200        4.33100
H          7.84900        4.57100        5.17500
C          8.33700        2.90400        6.44500
H          9.40400        3.11200        6.52400
H          7.83500        3.39700        7.27700
C          8.11900        1.39800        6.55400
O          7.38400        0.92500        7.40200
N          8.64700        0.60100        5.65300
H          8.42500       -0.37500        5.73800
H          9.15000        0.97300        4.86600
C          5.32200        3.53400        5.72700
O          4.67200        4.54700        5.48900
N          5.11700        2.84700        6.84300
H          4.41600        3.17800        7.48500
H          5.67100        2.02600        7.05400
