54
0 1
H         15.65900       -0.60000        1.79300
C         15.54400        0.43900        1.48800
H         15.82800        0.54100        0.44200
H         16.17300        1.07000        2.11200
C         14.09100        0.84600        1.65200
O         13.28200       -0.00300        2.01000
N         13.73300        2.11600        1.38900
C         14.63200        3.18500        0.97500
H         15.24800        2.88700        0.12700
H         15.26300        3.47300        1.81700
C         13.73100        4.35600        0.58500
H         13.44100        4.26500       -0.46400
H         14.21200        5.31700        0.77000
C         12.51100        4.14700        1.48100
H         11.62900        4.65400        1.08900
H         12.73400        4.50300        2.48800
C         12.35900        2.62100        1.50200
H         11.92800        2.31300        2.45500
C         11.41000        2.14500        0.38200
O         10.23100        2.48000        0.40500
N         11.90900        1.39900       -0.60800
H         12.89900        1.19200       -0.58600
C         11.20800        1.06400       -1.85400
H         10.92000        2.00900       -2.31600
C         12.19800        0.38000       -2.81100
H         12.45900       -0.60400       -2.42700
H         11.71100        0.23700       -3.77700
C         13.48300        1.14600       -3.02100
N         14.51800        1.27400       -2.08800
C         15.45800        2.02000       -2.68600
H         16.40200        2.29400       -2.23400
N         15.06600        2.37200       -3.92200
H         15.60500        2.92600       -4.57300
C         13.82100        1.83000       -4.15100
H         13.22200        1.91400       -5.04700
C          9.88600        0.26500       -1.75600
O          9.05200        0.50400       -2.63000
N          9.61900       -0.62700       -0.77100
C          8.31200       -1.26800       -0.66600
H          7.96100       -1.61600       -1.63900
H          7.59900       -0.55600       -0.24700
C          8.48000       -2.45200        0.28300
H          8.79200       -3.33400       -0.27900
H          7.56600       -2.65400        0.84300
C          9.61300       -1.98400        1.19000
H         10.12800       -2.82300        1.66300
H          9.21600       -1.30800        1.94900
C         10.52100       -1.20300        0.23600
H         11.00900       -0.42600        0.81700
C         11.58900       -2.12300       -0.37800
O         11.37400       -2.78200       -1.38800
N         12.75700       -2.21000        0.23800
H         13.45800       -2.81700       -0.15100
H         12.93700       -1.64200        1.05600
