56
0 1
H         11.39100        7.46300        4.50000
C         10.50600        7.38700        3.87200
H         10.65700        6.60600        3.12800
H         10.31900        8.33400        3.36800
C          9.30500        7.02700        4.72500
O          8.63100        6.04900        4.41600
N          8.98800        7.80500        5.77900
C          9.64800        9.04600        6.15900
H          9.87600        9.66600        5.29200
H         10.56100        8.81700        6.71000
C          8.65700        9.76500        7.07100
H          7.94000       10.32500        6.46800
H          9.16200       10.42200        7.78000
C          7.95100        8.60500        7.77200
H          6.96700        8.89700        8.14300
H          8.57100        8.24900        8.59600
C          7.87100        7.52100        6.69100
H          8.02300        6.54500        7.15400
C          6.49200        7.49900        6.00900
O          5.54400        6.95300        6.56600
N          6.37500        8.02900        4.78700
H          7.19900        8.45700        4.38200
C          5.18600        7.91500        3.93600
H          4.32800        8.30500        4.48500
C          5.37600        8.75600        2.65900
H          6.22700        8.37900        2.08800
H          4.48600        8.62300        2.04200
C          5.54000       10.27000        2.90000
H          5.26600       10.79100        1.98300
H          4.85100       10.59600        3.67900
C          6.95700       10.71700        3.26400
O          7.92300        9.98500        3.45000
O          7.10800       12.04800        3.39900
H          8.03200       12.19500        3.59800
C          4.84100        6.45900        3.55600
O          3.72000        6.20000        3.13200
N          5.77200        5.50900        3.71800
H          6.69800        5.78600        4.02800
C          5.51800        4.06900        3.57300
H          4.95600        3.91100        2.65000
C          6.87800        3.36100        3.43400
H          7.43300        3.83500        2.62200
H          7.44900        3.48700        4.35600
C          6.77100        1.86400        3.12500
H          6.35800        1.34900        3.99200
H          6.08900        1.72800        2.28500
S          8.35500        1.08800        2.70800
C          7.79100       -0.61600        2.46400
H          8.64000       -1.24600        2.20000
H          7.33800       -0.98700        3.38400
H          7.05500       -0.64700        1.66000
C          4.66600        3.47900        4.72000
O          4.14700        2.37500        4.60700
N          4.49100        4.17900        5.83500
H          3.91400        3.78400        6.55800
H          4.89100        5.10200        5.93300
