57
0 1
H         10.94900        7.89500        6.29500
C         11.05100        8.48000        5.38400
H         12.10500        8.62900        5.15900
H         10.55800        9.44100        5.51500
C         10.39400        7.72800        4.24100
O          9.94500        6.60500        4.45000
N         10.33100        8.31000        3.02900
C         10.94300        9.57700        2.65500
H         11.97300        9.64600        3.00900
H         10.34900       10.40000        3.05500
C         10.91300        9.61100        1.12800
H         11.78800        9.09400        0.73100
H         10.86000       10.63100        0.74600
C          9.65000        8.81400        0.80300
H          9.68000        8.40400       -0.20800
H          8.77600        9.45600        0.92200
C          9.63000        7.72200        1.87900
H          8.59600        7.51100        2.15200
C         10.24800        6.41000        1.36500
O          9.63500        5.72500        0.55500
N         11.44200        6.03900        1.83500
H         11.89700        6.63400        2.51500
C         12.09200        4.75300        1.55900
H         11.96700        4.50600        0.50400
C         13.58900        4.90900        1.86200
H         14.10900        3.99600        1.57000
H         13.99400        5.72700        1.26400
C         13.87000        5.19000        3.31900
N         13.60300        6.39300        3.98100
C         13.96400        6.19200        5.25700
H         13.89200        6.93700        6.03900
N         14.42300        4.94000        5.42800
H         14.75600        4.54900        6.29900
C         14.36300        4.29000        4.21700
H         14.63100        3.26300        4.00400
C         11.51300        3.57400        2.36200
O         11.91100        2.43800        2.11700
N         10.62400        3.82100        3.33400
H         10.38100        4.78500        3.51800
C         10.02700        2.77400        4.18300
H          9.93600        1.86500        3.58500
C         10.98000        2.45500        5.35100
H         10.56900        1.63100        5.93600
H         11.92500        2.11000        4.92800
C         11.29000        3.62900        6.29400
H         12.20800        3.38200        6.82700
H         11.48100        4.52800        5.70800
S         10.02700        3.99300        7.54300
C         10.86800        5.30700        8.46000
H         11.10600        6.12800        7.78400
H         10.21200        5.66900        9.25200
H         11.78500        4.91700        8.90000
C          8.60200        3.08100        4.68000
O          7.87400        2.17100        5.05700
N          8.14600        4.32700        4.66200
H          7.21100        4.49000        4.99200
H          8.75600        5.09400        4.42000
