63
0 1
H          5.58600        7.53100       12.12000
C          6.59900        7.82300       11.85000
H          7.17700        8.00300       12.75500
H          6.57500        8.73000       11.25000
C          7.24900        6.70000       11.06400
O          8.13600        6.05000       11.60800
N          6.84600        6.44700        9.80300
C          5.75600        7.13000        9.11600
H          6.16100        7.94800        8.51900
H          4.99900        7.50700        9.80500
C          5.13600        6.07700        8.20400
H          4.62500        6.52800        7.35300
H          4.45500        5.44500        8.77800
C          6.35600        5.26900        7.77500
H          6.84800        5.78400        6.94700
H          6.08500        4.25500        7.48000
C          7.26500        5.27400        9.01400
H          7.05600        4.38200        9.60500
C          8.74600        5.21500        8.58600
O          9.12800        4.32900        7.82500
N          9.58100        6.15700        9.02600
H          9.22600        6.81300        9.70900
C         10.91000        6.45700        8.46800
H         10.78900        6.67400        7.40600
C         11.45900        7.71800        9.15900
H         12.07700        7.40500       10.00300
H         12.11300        8.24100        8.46200
C         10.43900        8.68800        9.68700
C         10.29600        9.02500       10.98800
H         10.91100        8.63800       11.79600
N          9.25800        9.92500       11.12400
H          8.99600       10.33400       12.00900
C          8.64500       10.17800        9.91600
C          7.54200       10.96300        9.54900
H          7.01100       11.54000       10.29100
C          7.14100       10.99000        8.20200
H          6.29700       11.59400        7.89800
C          7.84600       10.23500        7.24700
H          7.53800       10.26300        6.21000
C          8.95400        9.45300        7.62700
H          9.48900        8.88100        6.88300
C          9.38500        9.40600        8.97100
C         11.93900        5.31900        8.57400
O         12.96900        5.35400        7.91000
N         11.67200        4.32500        9.42300
H         10.78200        4.35500        9.89900
C         12.55200        3.19100        9.70900
H         13.58600        3.52300        9.60100
C         12.34800        2.73300       11.17000
H         11.38700        2.22500       11.26200
H         13.12100        1.99600       11.39500
C         12.45200        3.85800       12.22800
H         12.52300        3.38600       13.20800
H         13.36700        4.42600       12.05900
C         11.26600        4.83000       12.28200
O         11.36100        6.03000       12.49600
O         10.06300        4.29700       11.97400
H          9.40500        5.01800       12.00500
C         12.35800        2.01600        8.72700
O         13.05600        1.01300        8.81700
N         11.41100        2.08900        7.79800
H         11.30300        1.31600        7.16400
H         10.82200        2.90800        7.73300
