57
0 1
H          6.03500       -1.39100        5.86200
C          5.15100       -1.03200        5.33500
H          4.26000       -1.33300        5.88100
H          5.13600       -1.44900        4.33100
C          5.21000        0.48300        5.25500
O          6.16200        1.06000        5.76900
N          4.21500        1.14600        4.63600
C          3.06700        0.53100        3.98200
H          2.52000       -0.11900        4.66600
H          3.40600       -0.03600        3.11400
C          2.17200        1.68300        3.52400
H          1.46900        1.94200        4.31700
H          1.64100        1.44100        2.60200
C          3.16900        2.82300        3.32300
H          2.68600        3.80000        3.35200
H          3.68200        2.69100        2.36900
C          4.16500        2.60300        4.47000
H          5.14600        2.96700        4.15900
C          3.78800        3.33300        5.77800
O          2.77800        4.03300        5.85700
N          4.58900        3.15000        6.83200
H          5.40800        2.56600        6.68900
C          4.32100        3.65000        8.19100
H          3.32200        3.32200        8.48200
C          5.32900        3.03700        9.17700
H          6.34500        3.27800        8.85900
H          5.16400        3.47600       10.16100
C          5.17900        1.51400        9.28900
H          4.15300        1.27900        9.57300
H          5.36600        1.07100        8.31100
S          6.30000        0.71400       10.47200
C          5.64100        1.32800       12.04600
H          6.18400        0.86400       12.86900
H          5.76400        2.40900       12.10600
H          4.58400        1.07600       12.12600
C          4.31700        5.18400        8.31800
O          3.83600        5.70400        9.32000
N          4.81000        5.91600        7.31400
H          5.18600        5.42600        6.50900
C          4.70600        7.37900        7.23000
H          4.89700        7.77600        8.22800
C          5.81500        7.92200        6.30100
H          6.00800        8.95800        6.58400
H          6.73600        7.36500        6.48200
C          5.50900        7.91200        4.78900
H          4.72500        8.64200        4.58500
H          6.39900        8.23700        4.25000
C          5.08600        6.55500        4.23300
O          5.59200        5.50700        4.59600
N          4.12500        6.51500        3.33800
H          3.66700        7.35800        3.04400
H          3.84900        5.60400        3.02100
C          3.30000        7.87900        6.82600
O          3.07200        9.07900        6.73200
N          2.34800        7.00100        6.52900
H          2.53900        6.00800        6.56300
H          1.43600        7.34800        6.28700
