54
0 1
H          4.11000        2.25200       13.69100
C          5.12400        2.47300       13.36400
H          5.83100        1.91200       13.97300
H          5.32900        3.53700       13.46200
C          5.29000        2.05800       11.91300
O          6.03900        1.12100       11.65700
N          4.61000        2.72400       10.95900
C          3.59200        3.73800       11.18400
H          4.06800        4.71500       11.27700
H          2.98900        3.52500       12.06700
C          2.71500        3.70300        9.93700
H          2.22000        4.65800        9.76100
H          1.98600        2.89500       10.01900
C          3.72800        3.37700        8.84200
H          4.22700        4.29800        8.54300
H          3.24700        2.90900        7.98300
C          4.71500        2.41900        9.53000
H          4.35500        1.40400        9.38000
C          6.16900        2.57000        9.01900
O          6.69500        3.68700        9.02600
N          6.84800        1.48100        8.59500
C          6.28500        0.15200        8.39600
H          5.46900        0.17400        7.67100
H          5.93300       -0.24300        9.35100
C          7.42900       -0.71600        7.88100
H          7.50800       -0.62000        6.79700
H          7.30700       -1.76100        8.17000
C          8.64500       -0.07800        8.54800
H          9.57000       -0.32000        8.02300
H          8.70400       -0.40900        9.58700
C          8.31500        1.41900        8.51000
H          8.74400        1.89300        9.39400
C          8.94500        2.09600        7.27900
O         10.16800        2.19100        7.19500
N          8.14600        2.56500        6.31900
H          7.14900        2.46000        6.46600
C          8.58200        3.32400        5.13200
H          9.46700        2.82000        4.74200
C          7.50100        3.23100        4.02300
H          7.94500        3.56600        3.08500
H          7.25200        2.17700        3.89500
C          6.17800        4.00600        4.21900
H          6.31100        5.04200        3.91000
H          5.41200        3.57300        3.57600
C          5.68900        3.97100        5.65800
O          5.18000        2.96900        6.13300
N          5.96900        4.99000        6.43800
H          5.88900        4.83400        7.43400
H          6.54500        5.73500        6.07000
C          9.03300        4.76500        5.48000
O          8.47000        5.75600        5.02400
N         10.02900        4.91800        6.34000
H         10.45500        4.09600        6.75100
H         10.31500        5.84800        6.59400
