57
0 1
H          7.71500        3.12500        0.05900
C          7.97400        2.75800        1.05100
H          8.48700        1.80300        0.97100
H          7.06400        2.63100        1.63600
C          8.87400        3.76700        1.74000
O          8.44300        4.38400        2.71200
N         10.11800        3.96900        1.27000
C         10.68100        3.39700        0.05600
H          9.97700        3.45100       -0.77600
H         10.97000        2.36100        0.24200
C         11.92000        4.23600       -0.25100
H         11.63500        5.11300       -0.83400
H         12.68200        3.65600       -0.77400
C         12.38800        4.66800        1.14000
H         12.98800        5.57800        1.10000
H         12.96100        3.85900        1.59600
C         11.08100        4.86500        1.91700
H         11.22900        4.56100        2.95400
C         10.63700        6.33700        1.91500
O         11.00300        7.08900        2.81200
N          9.81600        6.74700        0.94500
H          9.50400        6.06100        0.26400
C          9.23100        8.08800        0.84100
H          9.98000        8.79600        1.20000
C          8.97700        8.41200       -0.64900
H          9.05300        9.49400       -0.76400
H          9.77900        7.97700       -1.25000
C          7.62000        7.99400       -1.25600
H          6.84000        8.61500       -0.81600
H          7.63600        8.21600       -2.32200
C          7.21900        6.52800       -1.08700
O          8.02400        5.63600       -0.86500
N          5.94100        6.24100       -1.18000
H          5.63900        5.29300       -0.97100
H          5.26600        6.96100       -1.35300
C          7.98500        8.29400        1.72900
O          7.37200        9.35700        1.68300
N          7.58000        7.28000        2.50400
H          8.11200        6.41800        2.47300
C          6.35500        7.27700        3.31900
H          6.10300        8.31100        3.55900
C          5.19100        6.69800        2.49000
H          4.27000        6.79300        3.06600
H          5.07500        7.28800        1.58000
C          5.40000        5.22200        2.10400
H          6.28400        5.14000        1.47600
H          5.55200        4.62300        3.00200
C          4.22300        4.64100        1.33700
O          4.32000        4.30900        0.16600
N          3.06500        4.51600        1.94500
H          2.31500        4.12400        1.40500
H          2.97000        4.77900        2.91100
C          6.52500        6.56200        4.67700
O          5.54500        6.22800        5.33500
N          7.74700        6.29800        5.12100
H          7.84300        5.80900        5.99600
H          8.55200        6.54800        4.56900
