54
0 1
H         16.31200       -2.12600        2.99100
C         16.46200       -1.63900        2.03000
H         15.67100       -1.92200        1.33800
H         17.41900       -1.95100        1.61300
C         16.48000       -0.13200        2.21500
O         17.49400        0.48800        1.91300
N         15.39100        0.48600        2.71000
C         15.35900        1.91700        2.98100
H         15.59800        2.49300        2.08700
H         16.07300        2.14800        3.77300
C         13.94100        2.22900        3.45700
H         13.30900        2.47200        2.60100
H         13.92800        3.03700        4.18900
C         13.49700        0.90100        4.06900
H         12.41000        0.81800        4.11400
H         13.92200        0.80100        5.06900
C         14.13200       -0.13900        3.13700
H         14.33100       -1.04700        3.70500
C         13.17400       -0.49700        1.98500
O         12.12200       -1.08200        2.23200
N         13.49700       -0.14100        0.73700
H         14.40800        0.26200        0.57400
C         12.68400       -0.48700       -0.43600
H         11.67400       -0.14000       -0.22600
C         13.18200        0.28700       -1.67400
H         12.42700        0.19500       -2.45500
H         13.25500        1.34600       -1.42700
C         14.51600       -0.18700       -2.27400
H         14.41800       -1.23600       -2.55600
H         14.69000        0.37500       -3.19200
S         15.99800       -0.02500       -1.23900
C         16.15500        1.77400       -1.08200
H         15.28100        2.18400       -0.57800
H         17.04500        2.00300       -0.49300
H         16.25500        2.22200       -2.07000
C         12.64000       -2.01700       -0.66500
O         13.62200       -2.69800       -0.36900
N         11.53900       -2.58200       -1.20300
C         11.46000       -4.01100       -1.48000
H         11.70300       -4.60000       -0.59400
H         12.14800       -4.25900       -2.29000
C         10.02300       -4.28300       -1.92100
H          9.40300       -4.49600       -1.04900
H          9.96800       -5.09900       -2.64300
C          9.61100       -2.94800       -2.53700
H          8.52700       -2.83100       -2.56200
H         10.02000       -2.87300       -3.54700
C         10.29800       -1.92000       -1.63000
H         10.52500       -1.03500       -2.22200
C          9.35900       -1.49000       -0.48400
O          8.35300       -0.84200       -0.73500
N          9.64500       -1.81000        0.77000
H          9.02400       -1.49300        1.49600
H         10.51200       -2.27100        1.00600
