71
0 1
H          6.75900        7.52400        3.46900
C          5.85500        6.92700        3.56000
H          4.99200        7.57100        3.41000
H          5.81200        6.47200        4.54700
C          5.87500        5.83600        2.50700
O          6.93300        5.59300        1.93400
N          4.73600        5.17200        2.22500
C          3.45100        5.36900        2.88400
H          2.90800        6.17200        2.38500
H          3.56700        5.59600        3.94500
C          2.69900        4.05100        2.71800
H          1.61900        4.19800        2.71800
H          2.99600        3.35500        3.50400
C          3.20600        3.55200        1.36800
H          2.66200        4.05800        0.56800
H          3.10400        2.47000        1.27200
C          4.67700        3.98400        1.36100
H          5.27500        3.19900        1.82600
C          5.18200        4.17200       -0.07800
O          5.53100        3.19500       -0.73300
N          5.26100        5.41200       -0.56700
H          5.00400        6.17600        0.03900
C          5.86500        5.76200       -1.86000
H          5.40500        5.16100       -2.64500
C          5.57300        7.24200       -2.14200
H          6.14700        7.56400       -3.01300
H          4.51800        7.33700       -2.39900
C          5.85300        8.17000       -0.99700
C          7.06600        8.67000       -0.67800
H          7.98100        8.47500       -1.22600
N          6.97100        9.41200        0.48300
H          7.78300        9.80000        0.95600
C          5.68500        9.43500        0.97000
C          5.09500       10.03400        2.09300
H          5.69100       10.63900        2.76000
C          3.72400        9.83500        2.33200
H          3.25100       10.29800        3.18700
C          2.96900        9.03300        1.45600
H          1.91300        8.88800        1.64100
C          3.57300        8.43700        0.33100
H          2.97800        7.84000       -0.34500
C          4.94500        8.63000        0.05300
C          7.38000        5.48400       -1.93400
O          7.91600        5.38100       -3.03300
N          8.07000        5.33300       -0.79700
H          7.58900        5.48300        0.08400
C          9.45600        4.84300       -0.72900
H          9.94900        5.06200       -1.67600
C         10.21500        5.60200        0.37000
H          9.73200        5.40600        1.32800
H         11.23000        5.20700        0.43100
C         10.32700        7.08800        0.17800
C         10.83100        7.69800       -0.91900
H         11.21000        7.17900       -1.79100
N         10.79300        9.06900       -0.75100
H         11.13500        9.72100       -1.44200
C         10.25900        9.41400        0.47100
C          9.99700       10.64700        1.08800
H         10.24700       11.57000        0.58600
C          9.42100       10.66300        2.37000
H          9.22700       11.60500        2.86700
C          9.10900        9.45100        3.01100
H          8.67300        9.46400        4.00100
C          9.37200        8.21800        2.37900
H          9.12700        7.29000        2.87600
C          9.95200        8.16500        1.09300
C          9.56400        3.31400       -0.55500
O         10.65700        2.78100       -0.40000
N          8.46500        2.56900       -0.57100
H          8.56300        1.57400       -0.46600
H          7.55800        2.99100       -0.71900
