57
0 1
H         10.34500        6.31500        0.69200
C          9.75400        7.22000        0.82600
H          8.71300        7.03200        0.57400
H         10.14200        8.00800        0.18200
C          9.85200        7.67700        2.27000
O         10.25300        8.81300        2.50100
N          9.51000        6.82600        3.25600
C          8.97600        5.48300        3.08200
H          9.80100        4.77700        2.97500
H          8.30800        5.41500        2.22200
C          8.20000        5.18600        4.36300
H          8.16400        4.11700        4.57700
H          7.19400        5.60100        4.28900
C          8.99800        5.95200        5.41700
H          9.86400        5.35700        5.71500
H          8.38800        6.19700        6.28700
C          9.45300        7.21200        4.67200
H          8.69000        7.98300        4.78400
C         10.76900        7.74900        5.25800
O         10.74100        8.51800        6.21600
N         11.91200        7.38700        4.66800
H         11.85300        6.81900        3.83300
C         13.25100        7.87700        5.02200
H         13.41100        7.76400        6.09500
C         14.27300        7.01700        4.25600
H         15.27900        7.27300        4.59100
H         14.10200        5.96200        4.47300
C         14.18000        7.23800        2.76600
N         13.14500        6.77700        1.94700
C         13.29600        7.41900        0.77700
H         12.63000        7.32000       -0.06900
N         14.35000        8.25200        0.82600
H         14.58000        8.94400        0.12300
C         14.92500        8.14400        2.07000
H         15.72700        8.74700        2.47100
C         13.48300        9.36000        4.67600
O         14.45600        9.94100        5.15200
N         12.62800        9.95800        3.83600
H         11.85900        9.39500        3.48600
C         12.75500       11.29300        3.23300
H         11.89900       11.40400        2.56400
C         12.62700       12.41500        4.28900
H         13.56800       12.51300        4.83300
H         12.44900       13.35700        3.76700
C         11.51200       12.20900        5.33000
H         11.78100       11.38200        5.98800
H         11.43300       13.10300        5.94800
C         10.14800       11.93700        4.70500
O          9.65700       12.67900        3.87400
N          9.48000       10.87100        5.07900
H          9.90000       10.19700        5.71000
H          8.61700       10.71000        4.59600
C         13.99900       11.44300        2.33300
O         13.90000       11.45700        1.11100
N         15.19600       11.51700        2.89900
H         15.26900       11.40100        3.90100
H         16.00500       11.62900        2.31200
