56
0 1
H          6.33100       10.25900        7.59200
C          6.44500        9.32200        8.13600
H          5.52000        9.07200        8.64900
H          7.25000        9.42500        8.86200
C          6.80200        8.21900        7.15700
O          7.87000        7.63000        7.29500
N          5.94000        7.91300        6.16900
C          4.62700        8.51800        5.97500
H          4.69100        9.60500        5.92200
H          3.96800        8.22000        6.79200
C          4.09400        7.95800        4.65600
H          4.41400        8.59400        3.83000
H          3.00900        7.85800        4.66900
C          4.79000        6.59900        4.56700
H          4.81700        6.21600        3.54600
H          4.27600        5.88800        5.21600
C          6.18300        6.89600        5.14100
H          6.57900        5.99100        5.60200
C          7.20200        7.38300        4.08800
O          6.87500        7.53400        2.91200
N          8.43200        7.67700        4.52500
H          8.58700        7.52700        5.51700
C          9.51400        8.38800        3.81000
H         10.34500        8.46900        4.51200
C         10.03800        7.58200        2.60600
H          9.26800        7.53900        1.83500
H         10.90000        8.10100        2.18500
C         10.45800        6.14900        2.95700
H          9.60100        5.61300        3.36300
H         10.75400        5.64800        2.03400
S         11.83700        6.02800        4.12900
C         11.95000        4.22600        4.28400
H         12.15700        3.78600        3.30800
H         12.75500        3.97300        4.97300
H         11.00900        3.83300        4.66900
C          9.18000        9.84000        3.41800
O         10.00500       10.73000        3.60300
N          7.96800       10.10600        2.92800
H          7.34900        9.31700        2.78400
C          7.40500       11.45000        2.81800
H          8.17000       12.10400        2.39500
C          6.20500       11.40200        1.85300
H          6.55000       11.02600        0.88800
H          5.46800       10.69700        2.24300
C          5.50400       12.75100        1.62400
H          4.69500       12.60800        0.90600
H          5.06300       13.10400        2.55600
C          6.45500       13.81900        1.09200
O          7.17000       14.52400        1.78800
O          6.50200       13.93500       -0.24800
H          7.14400       14.62500       -0.42500
C          7.02500       11.99400        4.21000
O          6.46500       11.28200        5.03900
N          7.27000       13.27000        4.47200
H          7.03500       13.62700        5.38300
H          7.68500       13.86100        3.76500
