64
0 1
H         14.31200        9.03700        1.94200
C         15.05900        9.81600        2.08000
H         14.62500       10.79200        1.87200
H         15.89200        9.64000        1.40100
C         15.56700        9.78200        3.51000
O         16.77900        9.67700        3.68800
N         14.67900        9.86600        4.52000
C         13.24900       10.10200        4.37200
H         12.75100        9.16200        4.12800
H         13.03700       10.85200        3.60900
C         12.77300       10.60100        5.73400
H         11.72200       10.36900        5.90800
H         12.95600       11.67300        5.82300
C         13.68900        9.83900        6.68700
H         13.30900        8.82300        6.80800
H         13.75800       10.33100        7.65400
C         15.03300        9.83800        5.94300
H         15.54200       10.76500        6.18700
C         15.89900        8.61800        6.32100
O         15.41900        7.48800        6.27000
N         17.17800        8.76000        6.68300
H         17.65600        7.88000        6.84900
C         18.02100        9.97400        6.73300
H         17.54800       10.77800        6.17600
C         18.18500       10.44000        8.18800
H         18.72700        9.67200        8.74200
H         18.79800       11.34300        8.19800
C         16.91100       10.75300        8.91400
C         16.35200        9.99500        9.88400
H         16.76900        9.06500       10.25300
N         15.18300       10.58600       10.32200
H         14.60300       10.19500       11.05000
C         14.92200       11.75700        9.64300
C         13.87000       12.68300        9.70200
H         13.06000       12.54500       10.40200
C         13.88700       13.79000        8.83700
H         13.08700       14.51800        8.87100
C         14.95000       13.95700        7.93100
H         14.96400       14.81500        7.27400
C         16.00200       13.02000        7.88200
H         16.81800       13.16300        7.18900
C         16.01400       11.89300        8.73400
C         19.36800        9.75300        6.01700
O         20.41100       10.25900        6.42400
N         19.33300        8.94900        4.95500
H         18.41800        8.60200        4.69900
C         20.49000        8.33300        4.29300
H         21.34700        9.00400        4.36600
C         20.82700        7.02500        5.03500
H         21.65100        6.51700        4.53300
H         21.15800        7.27100        6.04500
C         19.64900        6.08700        5.14100
N         18.65200        6.15800        6.11700
C         17.72300        5.25900        5.76400
H         16.79800        5.09100        6.30300
N         18.08500        4.63300        4.63100
H         17.53600        3.93400        4.15200
C         19.29400        5.14900        4.21700
H         19.83900        4.91300        3.31200
C         20.24900        8.07600        2.79400
O         21.05700        7.43900        2.12900
N         19.14100        8.53400        2.22400
H         19.00000        8.35400        1.24500
H         18.46400        9.05000        2.77000
