54
0 1
H          3.86100       -5.69600        5.29300
C          4.35000       -5.93700        6.23600
H          5.27700       -6.47000        6.03300
H          3.68700       -6.55500        6.83900
C          4.66000       -4.65000        6.97800
O          4.24400       -3.59200        6.51100
N          5.37200       -4.71100        8.12000
C          5.79700       -5.91900        8.81100
H          6.73200       -6.27500        8.37400
H          5.03800       -6.70000        8.77100
C          6.03000       -5.49000       10.25800
H          6.75700       -6.13000       10.75800
H          5.08100       -5.48600       10.79700
C          6.54100       -4.05800       10.10300
H          7.61100       -4.08400        9.88400
H          6.35100       -3.46300       10.99600
C          5.76100       -3.53000        8.89200
H          4.85300       -3.03700        9.24100
C          6.59400       -2.54200        8.06200
O          7.57900       -2.92300        7.43400
N          6.19800       -1.26900        8.06800
H          5.39800       -1.01000        8.62600
C          6.76400       -0.21900        7.21400
H          7.83800       -0.38900        7.13100
C          6.14500       -0.33000        5.80500
H          6.64100        0.36700        5.13100
H          6.33500       -1.33700        5.42700
C          4.63000       -0.05700        5.75800
H          4.12900       -0.57300        6.57700
H          4.44600        1.01200        5.86100
C          4.01500       -0.54400        4.45300
O          3.80900        0.20800        3.51800
N          3.71500       -1.81600        4.33000
H          3.89000       -2.46100        5.09700
H          3.32100       -2.10000        3.45400
C          6.52600        1.17500        7.83100
O          5.55700        1.33700        8.57800
N          7.36100        2.19000        7.53000
C          8.57000        2.09500        6.71700
H          8.35500        1.71100        5.72000
H          9.29400        1.45200        7.22000
C          9.13200        3.51300        6.61700
H          8.70200        4.02100        5.75200
H         10.22100        3.51400        6.56200
C          8.62700        4.16400        7.90300
H          8.62000        5.25300        7.83900
H          9.25200        3.84600        8.73900
C          7.22500        3.55500        8.05500
H          6.97500        3.51500        9.11600
C          6.11300        4.35700        7.34300
O          6.33900        5.42600        6.79000
N          4.89000        3.84700        7.31100
H          4.16800        4.35900        6.83100
H          4.70600        2.96800        7.77500
