59
0 1
H          8.28900        1.29100        5.96900
C          8.72300        1.07700        4.99300
H          8.05100        0.43100        4.43200
H          9.68500        0.58600        5.12600
C          8.92100        2.38000        4.24100
O          8.51000        3.42200        4.74900
N          9.53600        2.35900        3.04400
C          9.88500        1.16500        2.28900
H          9.06500        0.44700        2.27300
H         10.77900        0.71100        2.71800
C         10.17900        1.65300        0.87200
H          9.24800        1.73300        0.30900
H         10.88800        1.00300        0.35800
C         10.75700        3.04700        1.11600
H         10.65600        3.68600        0.23700
H         11.80700        2.96000        1.39900
C          9.94900        3.56500        2.31300
H         10.60100        4.16700        2.94700
C          8.79200        4.46900        1.85500
O          9.02700        5.62700        1.53000
N          7.55400        3.96300        1.84400
H          7.44200        2.99100        2.11400
C          6.32100        4.72200        1.58900
H          6.54300        5.78800        1.65100
C          5.80000        4.41500        0.16700
H          5.59800        3.34600        0.10800
H          4.85400        4.93800        0.01800
C          6.74400        4.80100       -0.98900
H          7.72500        4.35200       -0.83500
C          6.18400        4.26000       -2.30600
H          6.85700        4.51700       -3.12400
H          6.09800        3.17600       -2.25300
H          5.20200        4.69200       -2.50000
C          6.89800        6.31600       -1.13200
H          7.36600        6.72700       -0.23800
H          7.54000        6.54200       -1.98300
H          5.92500        6.78300       -1.27700
C          5.27000        4.45000        2.68800
O          4.06900        4.49400        2.43400
N          5.72200        4.08500        3.89400
H          6.72700        4.03400        4.01700
C          4.87900        3.60100        4.99700
H          3.85600        3.94900        4.84500
C          4.86600        2.05900        5.00700
H          5.87600        1.67900        5.16500
H          4.26700        1.74400        5.86300
C          4.24600        1.40200        3.75800
H          3.92800        0.39500        4.02800
H          3.35300        1.95800        3.47100
C          5.17200        1.26900        2.54600
O          6.38900        1.38000        2.60100
N          4.62600        1.01200        1.37900
H          5.24800        0.93200        0.59700
H          3.62700        0.98000        1.28700
C          5.30500        4.12500        6.38200
O          4.50500        4.13900        7.30800
N          6.54200        4.57000        6.56900
H          6.78900        4.91700        7.48000
H          7.23100        4.49200        5.83400
