61
0 1
H         -1.77900       10.21000       -0.03100
C         -2.48000       10.73500        0.61700
H         -3.43900       10.22100        0.60200
H         -2.59800       11.75900        0.27000
C         -1.93600       10.73600        2.03400
O         -0.88700       10.14400        2.26600
N         -2.60500       11.39700        2.99200
C         -3.85800       12.12200        2.83500
H         -4.58200       11.55100        2.25300
H         -3.66200       13.08400        2.35900
C         -4.38600       12.34200        4.25200
H         -4.99100       11.48600        4.55500
H         -4.95900       13.26600        4.33100
C         -3.10700       12.39100        5.09000
H         -3.29900       12.13500        6.13200
H         -2.66500       13.38700        5.01900
C         -2.19200       11.37700        4.39400
H         -1.15800       11.71200        4.46400
C         -2.32400        9.96700        5.01500
O         -3.17500        9.19100        4.57800
N         -1.54600        9.63800        6.06800
C         -1.78500        8.46400        6.89200
H         -1.03300        7.70300        6.67500
H         -2.78400        8.05100        6.74700
C         -1.62900        8.96900        8.32000
H         -1.39100        8.16300        9.01400
H         -2.53900        9.48700        8.62600
C         -0.48100        9.97000        8.18600
H          0.46700        9.45100        8.32000
H         -0.56900       10.76900        8.92300
C         -0.59000       10.51800        6.75300
H         -0.99800       11.52700        6.81000
C          0.80800       10.59900        6.11300
O          1.55900       11.50600        6.45400
N          1.17700        9.66500        5.22700
H          0.50600        8.94900        4.99100
C          2.57900        9.43100        4.82600
H          3.16000       10.33300        5.02200
C          3.15700        8.30800        5.70800
H          4.19100        8.11500        5.42100
H          3.17900        8.66500        6.73900
C          2.39800        7.01200        5.67800
C          2.30300        6.18400        4.61300
H          2.79700        6.34600        3.66000
N          1.46200        5.13100        4.91500
H          1.23900        4.39400        4.26200
C          0.98100        5.21900        6.20300
C          0.11400        4.41600        6.95800
H         -0.32900        3.53300        6.52300
C         -0.16000        4.77000        8.29000
H         -0.82000        4.15800        8.88900
C          0.44300        5.91100        8.84900
H          0.24800        6.16700        9.88100
C          1.30700        6.71400        8.07800
H          1.78100        7.57500        8.52300
C          1.58600        6.40000        6.73000
C          2.79300        9.12800        3.32800
O          3.87800        8.73600        2.91600
N          1.79100        9.26900        2.47400
H          0.88600        9.60500        2.77500
H          1.96100        9.06600        1.50400
