57
0 1
H          8.61400        6.36000        6.93600
C          8.81200        7.42300        7.06700
H          9.68600        7.55500        7.70200
H          7.94400        7.89800        7.51900
C          9.08100        8.04200        5.70800
O          9.13300        7.31000        4.72600
N          9.26500        9.37300        5.62000
C          9.32600       10.29900        6.74100
H         10.00100        9.94200        7.52000
H          8.32300       10.44500        7.14600
C          9.84400       11.61400        6.16100
H         10.93600       11.60600        6.14700
H          9.47100       12.47600        6.71400
C          9.31000       11.57900        4.73000
H          9.88800       12.22500        4.06700
H          8.26100       11.88100        4.72700
C          9.41500       10.09700        4.35000
H          8.58700        9.83800        3.68900
C         10.71800        9.79800        3.58600
O         10.88900       10.27300        2.46600
N         11.63800        9.02300        4.16900
H         11.43200        8.64900        5.08700
C         12.80700        8.45400        3.48700
H         13.28200        9.21800        2.87000
C         13.79400        7.97200        4.56500
H         14.72600        7.67200        4.08400
H         14.01500        8.78800        5.25300
C         13.24600        6.80000        5.34300
N         12.20800        6.87100        6.27600
C         11.83600        5.60000        6.50100
H         11.01800        5.30500        7.14500
N         12.57300        4.75300        5.76400
H         12.38700        3.76300        5.65100
C         13.47400        5.49100        5.03300
H         14.13700        5.12800        4.26000
C         12.44000        7.27200        2.56900
O         13.22200        6.93600        1.68100
N         11.28300        6.63500        2.79900
H         10.69600        7.01100        3.53600
C         10.78600        5.39600        2.17700
H          9.84800        5.15500        2.68100
C         10.42100        5.63100        0.70000
H         11.32800        5.77900        0.11400
H          9.91100        4.74600        0.31700
C          9.52200        6.82500        0.50300
N          8.13900        6.83700        0.68400
C          7.76500        8.11900        0.56100
H          6.74800        8.47000        0.67200
N          8.83100        8.90000        0.31800
H          8.82800        9.90900        0.26300
C          9.94900        8.10000        0.27500
H         10.97700        8.42000        0.17500
C         11.69000        4.17300        2.40200
O         11.34500        3.26500        3.15000
N         12.87300        4.13100        1.80700
H         13.46000        3.32700        1.94700
H         13.18000        4.93700        1.27800
