56
0 1
H          2.79000        5.63600        4.96200
C          2.47300        5.51200        5.99500
H          3.30800        5.72700        6.66000
H          2.13600        4.49100        6.16800
C          1.33900        6.47000        6.30500
O          1.44900        7.21200        7.27800
N          0.24200        6.46400        5.52000
C         -0.00300        5.57500        4.39300
H          0.28100        4.54700        4.62000
H          0.54700        5.93500        3.52200
C         -1.50600        5.65500        4.12600
H         -2.03100        4.94200        4.76300
H         -1.74000        5.47800        3.07600
C         -1.85000        7.08200        4.55300
H         -2.90300        7.18300        4.81900
H         -1.59800        7.77200        3.74600
C         -0.92100        7.33500        5.74600
H         -0.60600        8.37900        5.74300
C         -1.62500        7.06100        7.08500
O         -2.26400        7.94900        7.63800
N         -1.45000        5.85600        7.63500
H         -0.92200        5.18600        7.09600
C         -1.46200        5.60500        9.07400
H         -1.68100        6.53500        9.59500
C         -2.54400        4.57300        9.43700
H         -2.34300        3.65600        8.88000
H         -2.46100        4.34100       10.50000
C         -3.99000        5.02100        9.14400
H         -4.08700        5.28700        8.09100
C         -4.94800        3.86500        9.43300
H         -5.96800        4.16700        9.19900
H         -4.68700        3.00700        8.81300
H         -4.88900        3.58200       10.48500
C         -4.41700        6.21300       10.00400
H         -5.46400        6.44800        9.81300
H         -4.28500        5.98600       11.06100
H         -3.82600        7.09200        9.74300
C         -0.05000        5.12100        9.46300
O          0.50100        4.29100        8.73400
N          0.55200        5.60400       10.56700
C          1.88800        5.18700       10.97200
H          2.59700        5.28400       10.14800
H          1.85400        4.15200       11.31400
C          2.28700        6.10200       12.12700
H          2.76200        7.00400       11.73700
H          2.94200        5.59700       12.83700
C          0.93700        6.45500       12.74800
H          0.98700        7.37500       13.33100
H          0.59900        5.63000       13.37700
C          0.01600        6.57700       11.52700
H         -0.99500        6.29300       11.82100
C         -0.03500        8.03500       11.02200
O         -0.55000        8.89700       11.72100
N          0.47300        8.35600        9.83800
H          0.89400        7.66400        9.23400
H          0.38300        9.31000        9.53000
