57
0 1
H         14.90600       20.04900        1.29000
C         14.32400       19.82800        0.39800
H         14.87100       20.16000       -0.48300
H         13.36800       20.34500        0.44500
C         14.09200       18.33000        0.30700
O         14.47600       17.74000       -0.69900
N         13.47200       17.69700        1.32000
C         12.84500       18.34300        2.46300
H         12.24400       19.20100        2.16100
H         13.61300       18.64800        3.17500
C         11.95100       17.27800        3.08900
H         10.99000       17.26400        2.57500
H         11.81300       17.44100        4.15800
C         12.71600       15.98600        2.80200
H         12.05400       15.11900        2.79700
H         13.49600       15.85500        3.55400
C         13.36800       16.23600        1.43600
H         14.37400       15.81400        1.45100
C         12.60600       15.52500        0.30100
O         12.72600       14.30900        0.17900
N         11.86100       16.25000       -0.54200
H         11.75100       17.23800       -0.34100
C         11.21800       15.72100       -1.75700
H         11.67700       14.76100       -1.99600
C          9.71400       15.46300       -1.52400
H          9.19300       16.41100       -1.38500
H          9.31000       14.98900       -2.41900
C          9.39800       14.53700       -0.34200
H          8.46200       14.02200       -0.55600
H         10.18000       13.78100       -0.26700
S          9.20400       15.37000        1.25900
C          9.21900       13.91900        2.34300
H         10.16200       13.38400        2.22200
H          9.11500       14.23800        3.38000
H          8.39100       13.25800        2.08300
C         11.44700       16.60800       -2.99900
O         10.72800       16.47700       -3.98700
N         12.40000       17.54900       -2.95200
H         12.97600       17.59800       -2.11900
C         12.58200       18.57200       -4.00000
H         12.42800       18.08700       -4.96600
C         11.49500       19.66400       -3.86400
H         11.67500       20.42400       -4.62500
H         10.52100       19.22900       -4.08900
C         11.43600       20.36400       -2.49200
H         12.44400       20.57800       -2.13800
H         10.91600       21.31400       -2.61700
C         10.67900       19.55900       -1.43700
O         11.23400       19.09200       -0.45700
N          9.39900       19.31200       -1.60400
H          8.95100       18.76100       -0.89300
H          8.92100       19.62500       -2.43000
C         13.99800       19.18500       -4.08300
O         14.23300       20.10600       -4.85500
N         14.97400       18.71900       -3.31600
H         14.79700       18.00100       -2.62700
H         15.88600       19.13300       -3.40700
