56
0 1
H         13.09800        1.19000       -6.58000
C         13.59100        1.17600       -7.55000
H         13.72700        0.14400       -7.87100
H         14.56200        1.66400       -7.48400
C         12.72800        1.90000       -8.56800
O         12.34500        1.28200       -9.55700
N         12.41100        3.19100       -8.35600
C         12.80500        3.98600       -7.19900
H         13.88600        3.96700       -7.05200
H         12.29700        3.60800       -6.31100
C         12.34100        5.41400       -7.48800
H         13.12500        5.95700       -8.01900
H         12.06000        5.94000       -6.57500
C         11.14300        5.19900       -8.41200
H         10.92200        6.08100       -9.01400
H         10.27000        4.93100       -7.81400
C         11.57100        3.98900       -9.25300
H         10.68000        3.42100       -9.52700
C         12.31000        4.36500      -10.55300
O         12.70800        5.51100      -10.76300
N         12.51300        3.38800      -11.43900
H         12.22900        2.45100      -11.17200
C         13.07600        3.59100      -12.77600
H         13.90200        4.29600      -12.68100
C         13.66000        2.25900      -13.29400
H         14.44200        1.94400      -12.60000
H         12.88000        1.49600      -13.28200
C         14.27000        2.30600      -14.70900
H         14.84700        1.39600      -14.87100
H         13.47600        2.32000      -15.45400
C         15.16500        3.52000      -14.94800
O         14.76700        4.66100      -15.14300
O         16.48900        3.27900      -14.90700
H         16.90900        4.12300      -15.07700
C         12.03900        4.23900      -13.71600
O         11.46200        3.58500      -14.58100
N         11.78500        5.53400      -13.51900
H         12.24100        5.97900      -12.73000
C         10.77800        6.30200      -14.26800
H          9.89500        5.67100      -14.37400
C         10.36200        7.55700      -13.47700
H         11.18400        8.27500      -13.49200
H          9.51100        8.01900      -13.97900
C          9.97700        7.30000      -12.01100
H         10.88700        7.09100      -11.45000
H          9.55900        8.22100      -11.60400
S          8.80200        5.95100      -11.68900
C          7.34300        6.55600      -12.58000
H          7.56200        6.62800      -13.64500
H          6.51700        5.85900      -12.43400
H          7.05900        7.53600      -12.19800
C         11.20200        6.68300      -15.70300
O         10.46100        7.36100      -16.40400
N         12.38400        6.29900      -16.17100
H         13.00000        5.73000      -15.60700
H         12.63000        6.55700      -17.11000
