59
0 1
H          6.99400       11.12200        0.39500
C          5.92700       11.18100        0.60800
H          5.44800       11.82200       -0.12900
H          5.78300       11.58700        1.60700
C          5.33400        9.78600        0.53800
O          6.04800        8.85800        0.17100
N          4.03400        9.60800        0.84100
C          3.07500       10.65500        1.16300
H          3.14900       11.49600        0.47300
H          3.23600       10.99100        2.18800
C          1.70000        9.99900        1.04300
H          1.36100       10.03800        0.00700
H          0.97000       10.46700        1.70400
C          1.97900        8.55000        1.43900
H          1.24000        7.86700        1.01800
H          1.98700        8.46900        2.52700
C          3.39200        8.28800        0.90200
H          3.92800        7.66200        1.61600
C          3.36700        7.53000       -0.43800
O          3.13400        6.32600       -0.44800
N          3.66500        8.20100       -1.55700
H          3.86100        9.18500       -1.47300
C          3.86000        7.58500       -2.87500
H          2.96900        7.01000       -3.13000
C          4.07700        8.68200       -3.94100
H          4.96300        9.26100       -3.67500
H          4.30800        8.17600       -4.88000
C          2.92300        9.66200       -4.24300
H          3.21300       10.22300       -5.13200
C          1.61200        8.94300       -4.56000
H          0.87000        9.66700       -4.89800
H          1.77800        8.21500       -5.35500
H          1.23200        8.43000       -3.67700
C          2.66700       10.68900       -3.13600
H          2.18300       10.22200       -2.28100
H          3.60600       11.15200       -2.83500
H          2.00400       11.46500       -3.52000
C          5.03700        6.58700       -2.90300
O          5.09900        5.75200       -3.79800
N          5.95000        6.64400       -1.92500
H          5.87100        7.38100       -1.23400
C          7.01600        5.65400       -1.73500
H          7.51400        5.51100       -2.69500
C          8.03100        6.25100       -0.73800
H          8.37100        7.21200       -1.12900
H          7.51900        6.44100        0.20700
C          9.27800        5.40100       -0.43400
H          9.92100        5.96300        0.24300
H          8.98700        4.48500        0.08000
C         10.08700        5.05000       -1.67900
O         11.00300        5.74900       -2.07300
N          9.77800        3.96500       -2.35100
H         10.32200        3.76800       -3.16900
H          8.97700        3.40800       -2.06500
C          6.48900        4.26800       -1.28800
O          7.20800        3.27500       -1.36700
N          5.25100        4.15200       -0.82000
H          4.92100        3.23800       -0.56200
H          4.63900        4.95600       -0.78000
