61
0 1
H         -6.41500        0.14800        1.84100
C         -6.92500        0.61200        1.00000
H         -6.23400        0.69900        0.16100
H         -7.27500        1.60400        1.27500
C         -8.09800       -0.25500        0.58200
O         -8.03800       -0.84600       -0.49000
N         -9.18100       -0.33500        1.38000
C         -9.31500        0.27000        2.69800
H         -9.68800        1.28900        2.59300
H         -8.37200        0.26800        3.24600
C        -10.34200       -0.58700        3.43600
H        -10.87700       -0.01500        4.19500
H         -9.85000       -1.45400        3.87900
C        -11.26600       -1.03900        2.30700
H        -11.97600       -0.24100        2.07900
H        -11.79500       -1.95800        2.56100
C        -10.30800       -1.24600        1.12800
H         -9.92900       -2.26900        1.15900
C        -11.03900       -1.05500       -0.21200
O        -11.71400       -1.96900       -0.67400
N        -10.88700        0.10600       -0.85700
H        -10.27100        0.79200       -0.45300
C        -11.38500        0.37200       -2.21300
H        -12.45500        0.16400       -2.24900
C        -11.15600        1.86100       -2.52900
H        -11.49800        2.06500       -3.54500
H        -11.77300        2.45900       -1.85600
C         -9.70600        2.30400       -2.39800
C         -9.26600        2.95100       -1.22600
H         -9.97100        3.20300       -0.44600
C         -7.90400        3.27500       -1.07000
H         -7.55100        3.77400       -0.18100
C         -6.97700        2.93800       -2.08000
O         -5.65900        3.21000       -1.90400
H         -5.13600        2.88500       -2.63900
C         -7.42100        2.31100       -3.26300
H         -6.71800        2.04500       -4.03900
C         -8.78600        2.01200       -3.42500
H         -9.11700        1.52300       -4.33300
C        -10.71400       -0.50500       -3.28900
O        -11.26000       -0.65500       -4.37800
N         -9.52800       -1.06000       -3.01100
H         -9.12000       -0.88700       -2.09900
C         -8.71700       -1.82200       -3.96800
H         -8.87400       -1.39600       -4.96000
C         -7.23100       -1.63800       -3.60800
H         -7.09800       -0.68700       -3.08900
H         -6.91200       -2.42900       -2.92800
C         -6.32500       -1.60200       -4.81000
N         -5.96800       -0.44600       -5.50900
C         -5.21600       -0.85900       -6.53900
H         -4.78900       -0.20200       -7.28600
N         -5.08700       -2.19700       -6.52300
H         -4.59700       -2.74800       -7.21100
C         -5.78300       -2.68300       -5.43900
H         -5.92900       -3.71800       -5.15800
C         -9.11500       -3.30900       -4.06700
O         -8.47900       -4.08800       -4.76700
N        -10.14800       -3.74900       -3.35800
H        -10.40300       -4.71800       -3.43300
H        -10.67200       -3.10800       -2.78200
