57
0 1
H         12.85100        9.14800        0.08800
C         12.54900        8.95800        1.11500
H         12.61800        9.87200        1.70100
H         13.19700        8.19800        1.55000
C         11.11800        8.45500        1.13800
O         10.87200        7.40900        1.73000
N         10.16100        9.15400        0.49800
C         10.33600       10.43700       -0.16800
H         10.68000       10.27000       -1.19000
H         11.03500       11.08200        0.36500
C          8.94900       11.07500       -0.18200
H          8.82800       11.76300       -1.02000
H          8.76700       11.58300        0.76600
C          8.02800        9.86200       -0.30300
H          7.97500        9.55400       -1.34900
H          7.02900       10.07300        0.08200
C          8.73900        8.78900        0.53000
H          8.39100        8.85100        1.56100
C          8.42400        7.38200       -0.00200
O          7.44500        6.77400        0.41500
N          9.27100        6.84100       -0.88300
H         10.09100        7.37400       -1.14400
C          9.19400        5.47200       -1.41200
H          8.17900        5.27500       -1.75900
C         10.16400        5.38000       -2.60000
H         10.07400        4.39600       -3.06200
H          9.89200        6.12600       -3.34700
C         11.59900        5.60400       -2.18900
N         12.16500        6.84200       -1.86700
C         13.40700        6.56900       -1.43600
H         14.11400        7.31000       -1.08900
N         13.63400        5.24500       -1.45300
H         14.46200        4.79100       -1.08900
C         12.50200        4.61900       -1.92000
H         12.32500        3.55400       -2.00000
C          9.53400        4.37900       -0.38100
O          9.37700        3.19800       -0.67900
N         10.02600        4.75100        0.80500
H         10.17700        5.74200        0.96000
C         10.45800        3.83900        1.87300
H          9.92200        2.89700        1.75200
C         11.96100        3.53600        1.71800
H         12.24200        2.77900        2.45000
H         12.13700        3.12000        0.72600
C         12.85700        4.77100        1.90100
H         12.55800        5.52100        1.17000
H         12.69500        5.19100        2.89400
S         14.63500        4.47300        1.68100
C         14.98500        3.50900        3.17700
H         14.44000        2.56600        3.14800
H         16.05400        3.30200        3.23400
H         14.68000        4.07500        4.05700
C         10.09300        4.35100        3.28200
O         10.65000        3.90600        4.27900
N          9.16400        5.29200        3.40100
H          8.71000        5.65800        2.57800
H          8.94300        5.63100        4.32100
