61
0 1
H          5.46500        5.83600       -7.08000
C          6.51300        5.78300       -7.36900
H          7.05600        6.63000       -6.96100
H          6.58500        5.80700       -8.45500
C          7.12800        4.49600       -6.86100
O          7.66900        3.74900       -7.66800
N          7.08500        4.22300       -5.54200
C          7.55200        2.95800       -4.99000
H          8.58600        2.76000       -5.27600
H          6.90800        2.15200       -5.34500
C          7.43300        3.08400       -3.47200
H          8.36200        3.48100       -3.06000
H          7.18100        2.13100       -3.00600
C          6.31300        4.11100       -3.30700
H          6.34800        4.59600       -2.33100
H          5.34800        3.62300       -3.44900
C          6.57000        5.08300       -4.46600
H          5.62700        5.54300       -4.75900
C          7.54100        6.20600       -4.04100
O          7.25600        6.94500       -3.10300
N          8.69300        6.33500       -4.70700
H          8.84600        5.72200       -5.49200
C          9.81300        7.21300       -4.33700
H         10.13200        6.94500       -3.32900
C         10.98300        6.92300       -5.29100
H         11.82200        7.57100       -5.03600
H         11.31500        5.89600       -5.13300
C         10.64500        7.10700       -6.76000
C         10.23800        6.00300       -7.53700
H         10.20800        5.01000       -7.10800
C          9.85300        6.18500       -8.87900
H          9.51700        5.33800       -9.45900
C          9.89200        7.47400       -9.45200
O          9.49700        7.66300      -10.73800
H          9.41800        6.83000      -11.20600
C         10.32500        8.57400       -8.68200
H         10.35300        9.55600       -9.12700
C         10.69600        8.39100       -7.33700
H         11.00800        9.24000       -6.74300
C          9.49900        8.72400       -4.29200
O         10.30800        9.48500       -3.77000
N          8.34300        9.17700       -4.79300
H          7.74500        8.53300       -5.28800
C          7.86100       10.55700       -4.61600
H          8.66600       11.24400       -4.87900
C          6.67000       10.81800       -5.55200
H          5.80900       10.25100       -5.19400
H          6.41100       11.87600       -5.51100
C          6.91000       10.43400       -6.99000
N          6.73400        9.15400       -7.51300
C          7.07400        9.23700       -8.80700
H          7.06100        8.40600       -9.50000
N          7.45800       10.48800       -9.11400
H          7.77800       10.79100      -10.02300
C          7.36300       11.26000       -7.97700
H          7.60400       12.30800       -7.87000
C          7.45400       10.89300       -3.17000
O          7.27800       12.05800       -2.83800
N          7.27300        9.91000       -2.29400
H          7.01600       10.15000       -1.35300
H          7.39500        8.94700       -2.57800
