59
0 1
H          9.35300        6.67100        0.32900
C          9.42000        7.56700       -0.28500
H         10.44000        7.94500       -0.27700
H          8.74800        8.32800        0.10900
C          9.01500        7.23700       -1.71000
O          8.06800        7.84100       -2.20800
N          9.70200        6.30000       -2.38800
C         10.85200        5.56100       -1.87900
H         10.62400        5.07000       -0.93300
H         11.69400        6.24300       -1.75500
C         11.19100        4.51700       -2.94200
H         10.64200        3.59500       -2.74000
H         12.26200        4.32200       -2.99000
C         10.67200        5.16100       -4.22800
H         10.47700        4.42400       -5.00900
H         11.39800        5.89400       -4.58200
C          9.40300        5.88900       -3.76300
H          9.24500        6.76800       -4.39000
C          8.13100        5.01900       -3.81600
O          8.20500        3.80200       -3.98100
N          6.96500        5.64500       -3.60400
H          7.04400        6.64100       -3.42400
C          5.65800        5.04200       -3.27500
H          4.97200        5.87700       -3.13400
C          5.12400        4.23100       -4.48100
H          5.16200        4.88600       -5.35300
H          5.79900        3.40000       -4.68400
C          3.69200        3.66000       -4.40900
H          3.44100        3.33000       -5.41700
C          3.55100        2.43500       -3.50300
H          3.60200        2.71500       -2.45300
H          2.58400        1.96600       -3.68300
H          4.33700        1.71400       -3.72900
C          2.65400        4.70800       -4.00400
H          2.80100        5.00700       -2.96500
H          2.74000        5.58100       -4.65000
H          1.65400        4.28800       -4.10900
C          5.66400        4.29600       -1.92600
O          4.82500        4.56800       -1.07000
N          6.65100        3.43000       -1.69000
H          7.29600        3.25800       -2.45400
C          6.98100        2.86700       -0.37900
H          6.05600        2.52200        0.08300
C          7.89300        1.64400       -0.58400
H          7.38900        0.93800       -1.24600
H          8.81100        1.96700       -1.07800
C          8.27500        0.90000        0.70400
H          8.97200        0.11100        0.42100
H          8.80900        1.56900        1.37800
S          6.90800        0.10800        1.60300
C          6.48000        1.39100        2.81200
H          6.07900        2.26700        2.30800
H          5.72500        1.00100        3.49600
H          7.36700        1.67000        3.38100
C          7.59700        3.94700        0.53400
O          8.80500        4.03200        0.72400
N          6.77400        4.83000        1.08000
H          7.15600        5.55700        1.66000
H          5.79600        4.81600        0.82000
