64
0 1
H         11.38600        2.74200        2.46100
C         10.67900        3.15200        3.18000
H         10.92700        4.19400        3.37900
H         10.72100        2.59300        4.11200
C          9.27800        3.08600        2.60300
O          8.71400        4.13400        2.30900
N          8.67400        1.89000        2.45900
C          9.28500        0.58900        2.69100
H          9.19400        0.32900        3.74600
H         10.33200        0.57100        2.38600
C          8.48000       -0.39200        1.84200
H          8.49700       -1.39900        2.25900
H          8.85800       -0.39100        0.81800
C          7.07800        0.21400        1.87400
H          6.58300       -0.06900        2.80500
H          6.48200       -0.10000        1.01600
C          7.34300        1.72400        1.85400
H          7.39300        2.06200        0.81800
C          6.21000        2.49300        2.55400
O          5.18900        2.78500        1.93900
N          6.40000        2.86700        3.82200
H          7.27900        2.62900        4.25500
C          5.51400        3.75000        4.59000
H          4.49300        3.37400        4.51000
C          5.92800        3.68000        6.07000
H          5.49100        4.52100        6.61100
H          5.49100        2.77400        6.49300
C          7.40600        3.64500        6.33900
C          8.10600        2.54300        6.69400
H          7.67100        1.56300        6.85700
N          9.44200        2.86200        6.82800
H         10.14600        2.20600        7.13800
C          9.67400        4.19300        6.56100
C         10.83800        4.97500        6.55700
H         11.79600        4.53600        6.79100
C         10.73800        6.34300        6.25100
H         11.62200        6.96600        6.24200
C          9.48100        6.90600        5.96700
H          9.41100        7.96100        5.73800
C          8.31900        6.11000        5.97200
H          7.36000        6.55900        5.75600
C          8.38500        4.72900        6.25900
C          5.45700        5.20000        4.06500
O          4.61500        5.96700        4.52000
N          6.29100        5.57800        3.08800
H          7.02100        4.93700        2.80000
C          6.13000        6.81400        2.30700
H          5.91300        7.63000        2.99400
C          7.43100        7.13000        1.54500
H          7.65400        6.28500        0.89200
H          7.28300        8.00500        0.91100
C          8.65300        7.38000        2.44200
H          8.56800        6.79500        3.35500
H          9.52600        7.00200        1.90900
S          9.01600        9.11200        2.86900
C          7.54300        9.59500        3.80700
H          6.68700        9.66400        3.13600
H          7.34200        8.86100        4.58800
H          7.71000       10.57000        4.26400
C          4.95300        6.76000        1.31200
O          4.56900        7.78200        0.75600
N          4.36300        5.59900        1.04800
H          3.59100        5.59400        0.40400
H          4.67900        4.74800        1.49200
