64
0 1
H          6.10000        7.45000       -3.92500
C          5.54900        6.77000       -3.27900
H          5.83500        5.74400       -3.50800
H          4.47900        6.89000       -3.43700
C          5.88300        7.06400       -1.82800
O          6.38200        6.17100       -1.14800
N          5.62400        8.29000       -1.33600
C          5.07700        9.41300       -2.08800
H          4.13600        9.14900       -2.57000
H          5.80500        9.73800       -2.83300
C          4.85000       10.53500       -1.07300
H          3.84600       10.45500       -0.65400
H          5.00400       11.51900       -1.51600
C          5.88800       10.23100        0.00800
H          5.62700       10.67500        0.96900
H          6.86400       10.59500       -0.31600
C          5.90500        8.69700        0.04200
H          6.90500        8.36600        0.32800
C          4.89700        8.08800        1.03600
O          4.01100        8.76500        1.55600
N          5.03300        6.78800        1.31200
H          5.75900        6.28900        0.81100
C          4.17300        5.99900        2.21300
H          3.13800        6.13400        1.89800
C          4.52700        4.51200        2.03500
H          3.94900        3.92000        2.74500
H          4.20600        4.20900        1.03800
C          5.97900        4.15100        2.18500
C          6.83200        3.93200        1.15800
H          6.56100        3.98400        0.10900
N          8.09100        3.64600        1.64500
H          8.87800        3.43400        1.04900
C          8.11800        3.67100        3.02200
C          9.14500        3.48300        3.95800
H         10.14700        3.24600        3.63000
C          8.85100        3.59700        5.32700
H          9.62700        3.44300        6.06600
C          7.53900        3.89100        5.73700
H          7.30800        3.96300        6.79200
C          6.51500        4.07800        4.78700
H          5.50900        4.29200        5.12000
C          6.77600        3.98500        3.40200
C          4.21100        6.42500        3.69700
O          3.50900        5.84600        4.52100
N          5.00400        7.44300        4.03800
H          5.55100        7.85700        3.29400
C          5.12100        8.06100        5.36400
H          4.37400        7.61000        6.01900
C          6.50700        7.74400        5.96600
H          6.50800        8.07500        7.00600
H          6.65100        6.66400        5.97400
C          7.70400        8.40600        5.25700
H          7.58000        9.48900        5.25700
H          8.60900        8.17700        5.81900
C          7.89300        7.92800        3.82100
O          7.49300        8.57100        2.86500
N          8.42000        6.74600        3.60400
H          8.61600        6.11800        4.36700
H          8.44800        6.43300        2.65000
C          4.80900        9.57300        5.34800
O          5.02400       10.26500        6.33600
N          4.32200       10.12800        4.24400
H          4.14100        9.56500        3.42200
H          4.12900       11.11400        4.25100
