64
0 1
H          7.15400       -4.35100        2.34200
C          6.46200       -3.93300        3.07100
H          6.26800       -4.65500        3.86100
H          5.52600       -3.67900        2.57500
C          7.06100       -2.67300        3.66800
O          6.48700       -1.60400        3.48200
N          8.19300       -2.76600        4.38900
C          8.94300       -3.98500        4.66100
H          9.07600       -4.58300        3.75900
H          8.42500       -4.56400        5.42600
C         10.30300       -3.53000        5.18800
H         10.99100       -3.38700        4.35300
H         10.71600       -4.24000        5.90500
C          9.99000       -2.18200        5.83800
H         10.87100       -1.53900        5.85900
H          9.61400       -2.34600        6.84900
C          8.87100       -1.60400        4.96400
H          8.17800       -1.04200        5.59100
C          9.42000       -0.68100        3.86700
O         10.27500       -1.08200        3.08000
N          8.96100        0.57200        3.83400
H          8.21700        0.82900        4.46600
C          9.34600        1.55700        2.80700
H          9.14900        1.13500        1.82000
C          8.48500        2.81900        2.98000
H          8.76800        3.30000        3.91800
H          8.73500        3.51100        2.17500
C          6.99000        2.65300        2.98900
C          6.29300        1.55300        2.61400
H          6.72700        0.62500        2.25900
N          4.94100        1.77700        2.77300
H          4.24100        1.07400        2.58200
C          4.68700        3.05000        3.23200
C          3.50500        3.74100        3.53500
H          2.54600        3.26100        3.41500
C          3.58800        5.06700        3.99300
H          2.68700        5.61800        4.23000
C          4.84600        5.68000        4.14200
H          4.90500        6.70100        4.49300
C          6.02700        4.97400        3.83600
H          6.98600        5.45500        3.95300
C          5.98000        3.64000        3.37300
C         10.83900        1.92500        2.84400
O         11.40500        2.32200        1.83100
N         11.48500        1.77000        4.00300
H         10.94900        1.46600        4.80500
C         12.92800        1.93500        4.20900
H         13.29400        2.71200        3.53700
C         13.14900        2.40000        5.65600
H         14.21100        2.58700        5.81600
H         12.62400        3.34400        5.80700
C         12.65800        1.41400        6.68900
N         11.31800        1.17200        7.01000
C         11.33800        0.25100        7.98500
H         10.45600       -0.14300        8.47300
N         12.60100       -0.11700        8.26100
H         12.87800       -0.79500        8.95800
C         13.44800        0.60500        7.45000
H         14.52800        0.55600        7.41100
C         13.75200        0.66900        3.89600
O         14.94500        0.62300        4.17600
N         13.16000       -0.38600        3.35100
H         13.72000       -1.19500        3.14600
H         12.17400       -0.36300        3.12700
