57
0 1
H          3.61800        6.65900       -3.72200
C          3.02100        5.92800       -4.26500
H          3.24100        6.02300       -5.32800
H          1.96300        6.10800       -4.09500
C          3.38000        4.52200       -3.81800
O          3.72000        3.69800       -4.66500
N          3.30700        4.20800       -2.51000
C          3.45700        2.83700       -2.03500
H          4.48500        2.49200       -2.15600
H          2.78000        2.18600       -2.59100
C          3.06500        2.84300       -0.55700
H          3.95700        2.95400        0.06200
H          2.51600        1.94200       -0.28100
C          2.19400        4.09400       -0.44000
H          2.13600        4.45700        0.58700
H          1.19200        3.87700       -0.81500
C          2.89800        5.06800       -1.39300
H          2.18000        5.81500       -1.72700
C          4.06900        5.80900       -0.70700
O          3.96100        6.18300        0.45900
N          5.21300        5.98900       -1.37900
H          5.23600        5.75300       -2.36400
C          6.46700        6.47600       -0.76800
H          6.67500        5.85400        0.10300
C          7.65800        6.33800       -1.74300
H          7.58800        7.10900       -2.51300
H          8.56900        6.53900       -1.17700
C          7.82500        4.95900       -2.41600
H          8.82800        4.89400       -2.83700
H          7.72300        4.17700       -1.66400
C          6.83100        4.71200       -3.55000
O          6.18100        5.61500       -4.04600
N          6.59300        3.48400       -3.94600
H          5.81900        3.38400       -4.59600
H          7.09400        2.70100       -3.57300
C          6.38700        7.92900       -0.25700
O          7.24500        8.35700        0.50900
N          5.35800        8.68100       -0.65800
H          4.67900        8.26100       -1.27800
C          5.03900       10.02200       -0.15900
H          5.95900       10.60300       -0.08100
C          4.11000       10.69200       -1.18100
H          3.94300       11.72800       -0.88500
H          4.59800       10.70100       -2.15700
C          2.77500        9.99800       -1.31500
N          2.55200        8.76900       -1.94700
C          1.24200        8.51900       -1.79700
H          0.73600        7.64600       -2.18400
N          0.64900        9.50100       -1.09700
H         -0.32900        9.53500       -0.84300
C          1.60300       10.44100       -0.78000
H          1.47100       11.34600       -0.20200
C          4.38900       10.03100        1.23800
O          4.15100       11.09500        1.79800
N          4.05500        8.88400        1.81800
H          3.63700        8.91300        2.73100
H          4.21300        8.00700        1.33900
