64
0 1
H         11.53400       -1.91400        0.23200
C         10.94200       -2.34200       -0.57400
H         11.53200       -3.10500       -1.08000
H         10.65700       -1.57500       -1.29000
C          9.69900       -2.99600        0.00700
O          9.58300       -4.21300       -0.09200
N          8.75600       -2.22500        0.58100
C          7.55200       -2.77400        1.18900
H          7.79100       -3.60100        1.85900
H          6.87600       -3.11400        0.40300
C          6.91100       -1.62600        1.96700
H          7.33000       -1.58100        2.97400
H          5.82500       -1.71600        2.00300
C          7.35700       -0.40500        1.16600
H          7.32500        0.50200        1.76300
H          6.72500       -0.29800        0.28200
C          8.78200       -0.76800        0.74000
H          9.00100       -0.28400       -0.21200
C          9.80800       -0.29100        1.78300
O         10.35000       -1.07600        2.55600
N         10.05400        1.02000        1.83300
H          9.60400        1.62000        1.15000
C         11.07700        1.65700        2.68100
H         12.04800        1.22400        2.43800
C         11.11900        3.15900        2.35300
H         10.21000        3.63000        2.73100
H         11.96600        3.61100        2.87000
C         11.22100        3.47000        0.87900
N         10.18900        3.31400       -0.05100
C         10.69700        3.69700       -1.23100
H         10.14600        3.70300       -2.16300
N         11.98100        4.07100       -1.09100
H         12.57800        4.40400       -1.83600
C         12.33000        3.93400        0.23400
H         13.28800        4.15000        0.68800
C         10.88400        1.46200        4.19500
O         11.82200        1.67000        4.95700
N          9.68500        1.06700        4.62900
H          8.96600        0.93400        3.93500
C          9.33300        0.74300        6.01800
H         10.12600        1.09600        6.67900
C          8.04800        1.50000        6.38300
H          7.79200        1.29000        7.42300
H          8.24800        2.57000        6.31600
C          6.86300        1.19300        5.51700
C          5.94900        0.22700        5.75900
H          5.96500       -0.42800        6.62500
N          5.01800        0.20100        4.73900
H          4.23300       -0.43400        4.72200
C          5.29800        1.14400        3.77300
C          4.67800        1.49300        2.56400
H          3.78200        0.98200        2.24300
C          5.23700        2.51700        1.77900
H          4.77100        2.80200        0.84600
C          6.40400        3.17400        2.21100
H          6.82900        3.96500        1.60600
C          7.01500        2.81900        3.43000
H          7.89900        3.34500        3.76100
C          6.47900        1.79500        4.24200
C          9.20000       -0.77300        6.27900
O          8.70100       -1.18800        7.31900
N          9.60400       -1.63500        5.35400
H         10.01200       -1.30700        4.48700
H          9.51400       -2.61800        5.54400
