56
0 1
H          5.53400        2.84000        2.87600
C          6.22300        3.68200        2.85800
H          6.62200        3.79800        1.84900
H          7.04500        3.51100        3.55000
C          5.49000        4.95100        3.24700
O          5.54300        5.91900        2.49300
N          4.83000        4.99900        4.42100
C          4.82100        3.96400        5.44400
H          5.81100        3.53100        5.59100
H          4.10500        3.18800        5.16800
C          4.36300        4.66200        6.72400
H          5.22000        5.11500        7.22400
H          3.84500        3.97700        7.39600
C          3.43400        5.75600        6.19800
H          3.34400        6.58400        6.90300
H          2.45100        5.32800        5.99300
C          4.08800        6.18100        4.87900
H          3.31100        6.43100        4.15500
C          4.98000        7.42200        5.05900
O          4.49400        8.54900        5.00000
N          6.29300        7.22700        5.20700
H          6.61700        6.27300        5.31300
C          7.32800        8.26600        5.22400
H          7.13100        8.94800        6.05200
C          8.69000        7.58500        5.44600
H          8.97700        7.06800        4.52900
H          9.44100        8.35100        5.64300
C          8.71000        6.57100        6.56700
N          8.14000        5.29400        6.51200
C          8.38800        4.73100        7.70300
H          8.08700        3.73000        7.98300
N          9.06600        5.58100        8.49400
H          9.37600        5.38500        9.43600
C          9.27800        6.74900        7.79400
H          9.79500        7.63500        8.13500
C          7.38000        9.11600        3.94300
O          7.96600       10.19200        3.95800
N          6.77100        8.65200        2.84600
H          6.31800        7.74600        2.89900
C          6.62400        9.40100        1.59200
H          7.57400        9.88300        1.35800
C          6.27900        8.42100        0.45600
H          5.34000        7.92400        0.70500
H          6.12800        8.98200       -0.46800
C          7.36800        7.35600        0.20900
H          8.21100        7.83100       -0.29200
H          7.72000        6.94600        1.15400
C          6.90000        6.17600       -0.64400
O          7.33100        5.03500       -0.55200
O          5.93500        6.43100       -1.55000
H          5.76200        5.58800       -1.96800
C          5.56100       10.52000        1.67000
O          5.45600       11.33500        0.76100
N          4.74800       10.58800        2.72000
H          4.82100        9.91400        3.47100
H          4.07100       11.33000        2.75000
