61
0 1
H          8.30500       12.73800        5.19400
C          8.93300       12.18800        5.89300
H          8.31000       11.76700        6.67900
H          9.67500       12.85900        6.32000
C          9.63000       11.06500        5.14900
O          9.41100       10.92800        3.95000
N         10.46700       10.25500        5.82100
C         10.86100       10.39400        7.21700
H          9.99300       10.42900        7.87600
H         11.45900       11.29800        7.33600
C         11.71600        9.16800        7.53500
H         11.08000        8.35700        7.89300
H         12.49300        9.39500        8.26400
C         12.30300        8.80200        6.17100
H         12.60600        7.75500        6.12700
H         13.15500        9.45000        5.95700
C         11.16200        9.12300        5.19900
H         11.57800        9.41700        4.23400
C         10.26800        7.88800        4.98200
O         10.62400        7.00600        4.20600
N          9.12400        7.80700        5.66900
H          8.87000        8.59800        6.24200
C          8.31300        6.58900        5.85000
H          8.94600        5.82100        6.29400
C          7.16900        6.90900        6.82800
H          6.35000        7.36300        6.26700
H          6.79200        5.97300        7.24400
C          7.54100        7.84200        7.96800
C          8.38000        7.39400        9.00600
H          8.73400        6.37200        9.01200
C          8.75700        8.27800       10.03600
H          9.39700        7.94500       10.84000
C          8.28600        9.60700       10.03500
O          8.65300       10.45300       11.03100
H          8.11300       11.24400       11.05200
C          7.44700       10.05700        8.99200
H          7.08600       11.07400        8.98700
C          7.08500        9.17600        7.95500
H          6.44700        9.52000        7.14800
C          7.72000        6.00200        4.55700
O          7.29700        4.85100        4.53000
N          7.67600        6.81100        3.50100
H          8.01800        7.74900        3.65300
C          7.04600        6.53400        2.20900
H          6.99800        5.45100        2.08800
C          5.59100        7.06100        2.23200
H          5.04800        6.60300        1.40500
H          5.12000        6.70900        3.15200
C          5.38500        8.58900        2.14200
H          5.43800        8.88600        1.09400
H          4.38300        8.83300        2.49500
C          6.39700        9.40800        2.93800
O          6.40500        9.44200        4.16000
N          7.34000       10.03300        2.27200
H          7.38500        9.97000        1.27000
H          8.05000       10.51200        2.82000
C          7.91000        7.05900        1.04200
O          7.40700        7.47400        0.00400
N          9.22600        7.12100        1.21400
H          9.79400        7.47500        0.46300
H          9.63800        6.81200        2.08500
