54
0 1
H          2.33800        3.20700        8.89600
C          2.57400        3.62200        9.87400
H          3.54900        3.26000       10.19700
H          1.82000        3.32300       10.59900
C          2.61300        5.13600        9.78900
O          3.64200        5.72200       10.11300
N          1.53200        5.79700        9.34200
C          0.26800        5.20900        8.91900
H         -0.08100        4.45800        9.62800
H          0.38800        4.76900        7.92900
C         -0.72600        6.36900        8.85500
H         -1.19900        6.50100        9.82900
H         -1.47800        6.21400        8.08100
C          0.16800        7.57200        8.54800
H         -0.29000        8.50900        8.86800
H          0.38300        7.60100        7.47800
C          1.45300        7.25600        9.31900
H          2.30700        7.64900        8.76900
C          1.42300        7.85300       10.74400
O          0.92800        7.20200       11.66500
N          1.89100        9.10200       10.94400
C          1.72400        9.81100       12.20600
H          2.08000        9.21800       13.04800
H          0.66800       10.04800       12.34500
C          2.52800       11.10300       12.07500
H          3.56100       10.93300       12.38000
H          2.08500       11.91500       12.65300
C          2.46900       11.37400       10.57300
H          3.28600       12.01900       10.24700
H          1.50900       11.82800       10.32400
C          2.54500        9.97100        9.95800
H          1.98600        9.97200        9.02200
C          4.00600        9.59600        9.63700
O          4.55500       10.13300        8.68200
N          4.63600        8.69400       10.39800
H          4.13200        8.28400       11.17200
C          6.06700        8.35800       10.27900
H          6.64600        9.28000       10.35000
C          6.48700        7.42700       11.43200
H          5.89500        6.51300       11.40300
H          7.52800        7.14400       11.27000
C          6.40400        8.05200       12.83400
H          6.91700        7.38200       13.52500
H          6.96200        8.98900       12.82100
S          4.75600        8.38700       13.52600
C          4.03300        6.72400       13.59400
H          3.04000        6.78000       14.04200
H          3.93900        6.31400       12.59000
H          4.66500        6.07200       14.19700
C          6.45600        7.69700        8.94300
O          7.59100        7.81700        8.50000
N          5.55300        6.98100        8.28700
H          5.81900        6.56300        7.41200
H          4.65800        6.80300        8.71900
