68
0 1
H         11.15500       -1.68900        1.21400
C         11.14100       -0.67700        0.81300
H         12.08300       -0.17700        1.03000
H         10.32500       -0.11900        1.26900
C         10.93000       -0.72800       -0.68900
O          9.94300       -0.17300       -1.16100
N         11.81600       -1.38800       -1.45400
C         13.03900       -2.02300       -0.97400
H         12.82000       -2.80500       -0.24600
H         13.69000       -1.26800       -0.53100
C         13.72000       -2.62300       -2.20500
H         13.37400       -3.64700       -2.35700
H         14.80700       -2.59100       -2.12300
C         13.21000       -1.73300       -3.33700
H         13.30400       -2.21000       -4.31200
H         13.76100       -0.79100       -3.33400
C         11.75600       -1.47100       -2.91800
H         11.45000       -0.50900       -3.32300
C         10.75600       -2.53200       -3.43300
O         11.05800       -3.27100       -4.36800
N          9.55800       -2.63400       -2.84100
H          9.32100       -1.93000       -2.15400
C          8.53600       -3.66500       -3.14000
H          9.04400       -4.63000       -3.14900
C          7.50700       -3.70500       -1.99300
H          6.82300       -4.53800       -2.16400
H          8.03600       -3.92400       -1.06400
C          6.68800       -2.43800       -1.80000
C          7.09800       -1.46700       -0.86500
H          7.98600       -1.62800       -0.27200
C          6.35600       -0.28100       -0.69700
H          6.68300        0.46300        0.01300
C          5.18400       -0.07200       -1.45500
O          4.46300        1.06900       -1.30400
H          4.85200        1.66200       -0.66200
C          4.76100       -1.05100       -2.37600
H          3.86000       -0.88600       -2.94800
C          5.50900       -2.23200       -2.54400
H          5.17400       -2.98100       -3.25000
C          7.86000       -3.54400       -4.53100
O          6.80600       -4.12200       -4.77900
N          8.46700       -2.77700       -5.43400
H          9.35500       -2.39400       -5.14800
C          7.92500       -2.27000       -6.69800
H          7.13400       -2.93300       -7.05400
C          7.32100       -0.88100       -6.41600
H          7.12700       -0.36300       -7.35600
H          6.35700       -1.02800       -5.92500
C          8.16400       -0.00400       -5.53200
C          7.97500        0.15200       -4.20300
H          7.16900       -0.30200       -3.63900
N          9.00500        0.89300       -3.66700
H          9.13400        1.01200       -2.66500
C          9.90400        1.28500       -4.63500
C         11.10100        2.01300       -4.58500
H         11.45700        2.41200       -3.64800
C         11.82200        2.22100       -5.77300
H         12.74300        2.78800       -5.75900
C         11.34000        1.69600       -6.98600
H         11.89300        1.86200       -7.90000
C         10.13900        0.95900       -7.02100
H          9.77900        0.56400       -7.96100
C          9.39000        0.73000       -5.84600
C          8.99600       -2.21400       -7.80700
O          8.72600       -1.77600       -8.91800
N         10.22700       -2.64300       -7.54600
H         10.91300       -2.59200       -8.28100
H         10.45600       -3.01900       -6.63800
