56
0 1
H         16.57000       10.68000        5.94600
C         16.27200       10.49500        4.91500
H         17.14700       10.21500        4.33100
H         15.82100       11.39500        4.50100
C         15.26300        9.36200        4.88600
O         14.95200        8.82600        5.94700
N         14.74400        8.97400        3.70600
C         15.08500        9.54500        2.40900
H         16.15900        9.50100        2.22700
H         14.73600       10.57800        2.36400
C         14.34200        8.70700        1.36700
H         14.96500        7.86600        1.05800
H         14.04500        9.30400        0.50500
C         13.13300        8.19700        2.15000
H         12.68600        7.31400        1.69000
H         12.38900        8.99100        2.22400
C         13.72900        7.92600        3.53900
H         12.94700        8.05200        4.28800
C         14.31000        6.50500        3.70200
O         14.16500        5.64600        2.83700
N         14.99900        6.24100        4.81500
H         15.06300        6.98500        5.50300
C         15.74400        4.99400        5.06000
H         16.19800        4.69500        4.11500
C         16.88900        5.24600        6.06400
H         16.47000        5.33000        7.06800
H         17.54900        4.37700        6.05200
C         17.74000        6.50300        5.79200
H         17.19500        7.38600        6.12100
H         18.65300        6.43600        6.38300
C         18.12700        6.69300        4.32600
O         17.88700        7.69200        3.66400
O         18.73600        5.64200        3.74300
H         18.88300        5.90400        2.83300
C         14.86100        3.79900        5.48900
O         15.37700        2.78400        5.95300
N         13.53500        3.91500        5.36900
H         13.17400        4.74600        4.92100
C         12.55800        2.87500        5.70000
H         12.96300        1.91300        5.38300
C         12.33900        2.84500        7.22500
H         13.29800        2.69200        7.72000
H         11.94900        3.81100        7.54800
C         11.37200        1.75000        7.69500
H         11.37200        1.74100        8.78500
H         10.36400        2.01400        7.37400
S         11.72700        0.06400        7.11100
C         13.39300       -0.19100        7.78400
H         14.09300        0.50600        7.32200
H         13.38300       -0.03500        8.86300
H         13.71700       -1.21000        7.57100
C         11.24500        3.11600        4.93900
O         10.85900        4.25400        4.69600
N         10.53200        2.06200        4.56700
H         10.84400        1.13300        4.80000
H          9.67300        2.22200        4.06700
