58
0 1
H          7.41000        5.43400        5.72300
C          7.90300        4.51600        6.03800
H          8.38400        4.67600        7.00100
H          8.64100        4.22600        5.29300
C          6.86100        3.42100        6.17400
O          5.68400        3.69800        5.96700
N          7.25800        2.17900        6.50300
C          8.62400        1.74000        6.75100
H          9.14400        2.41700        7.43000
H          9.15900        1.67000        5.80300
C          8.50800        0.35300        7.38500
H          8.43500        0.44900        8.46900
H          9.34900       -0.28600        7.11400
C          7.18700       -0.17600        6.82200
H          6.74500       -0.93500        7.47000
H          7.35500       -0.58200        5.82300
C          6.31900        1.08200        6.72200
H          5.64900        0.99200        5.86600
C          5.48400        1.29800        7.99300
O          6.00900        1.70400        9.03200
N          4.19000        0.97100        7.92600
H          3.82800        0.64200        7.04600
C          3.28500        0.96000        9.07900
H          3.57000        1.76500        9.76000
C          1.82900        1.20000        8.63100
H          1.59100        0.54800        7.78900
H          1.18500        0.90600        9.46100
C          1.47800        2.66000        8.27600
H          1.80200        3.31300        9.08700
C          2.10100        3.15000        6.96600
H          1.72000        4.14100        6.72200
H          3.18100        3.23600        7.07300
H          1.86500        2.46500        6.15300
C         -0.04100        2.79000        8.13800
H         -0.52400        2.49800        9.07000
H         -0.30400        3.82600        7.92500
H         -0.40000        2.15500        7.32800
C          3.40900       -0.36900        9.84400
O          3.41100       -1.44500        9.24900
N          3.47500       -0.29300       11.17300
H          3.50700        0.63700       11.57500
C          3.73700       -1.41500       12.08800
H          4.44000       -2.09000       11.59700
C          4.42000       -0.89100       13.37600
H          3.80500       -0.10500       13.81900
H          4.48200       -1.70900       14.09500
C          5.85700       -0.36600       13.17000
H          6.26900       -0.06500       14.13300
H          6.47400       -1.17900       12.78500
C          5.95100        0.82600       12.22000
O          5.14300        1.74500       12.17500
O          6.96800        0.75900       11.33900
H          6.75100        1.38900       10.63000
C          2.47200       -2.25800       12.36900
O          2.13200       -2.55300       13.50800
N          1.72700       -2.63500       11.33800
H          2.02800       -2.40500       10.40000
H          0.89800       -3.17600       11.51500
