54
0 1
H         10.76200       10.02700       -1.08100
C         10.74300        8.96100       -0.86300
H         11.72100        8.53200       -1.07000
H          9.99000        8.48500       -1.48700
C         10.40300        8.76400        0.60400
O         10.18100        9.76000        1.28700
N         10.36500        7.51500        1.10700
C         10.21300        7.23600        2.52900
H          9.41100        7.82500        2.97300
H         11.15400        7.45300        3.03700
C          9.90400        5.74400        2.63000
H          8.82900        5.58300        2.53600
H         10.27700        5.31700        3.56200
C         10.62900        5.17400        1.41000
H         10.20600        4.21800        1.09800
H         11.68900        5.05700        1.64200
C         10.45900        6.26400        0.34500
H         11.33800        6.27300       -0.29900
C          9.22200        5.98600       -0.53000
O          9.34400        5.35300       -1.57500
N          8.04200        6.47200       -0.13700
H          8.00500        6.97600        0.74200
C          6.82300        6.42900       -0.95400
H          6.71200        5.40000       -1.29600
C          5.58600        6.77200       -0.09300
H          4.69300        6.51500       -0.66300
H          5.59200        6.14200        0.79800
C          5.45500        8.24800        0.33800
H          5.32700        8.87700       -0.54300
H          4.55900        8.35900        0.94900
C          6.64800        8.73400        1.15500
O          7.05400        8.10800        2.11900
N          7.31000        9.79300        0.75300
H          8.17600       10.00100        1.23900
H          7.09600       10.20600       -0.13700
C          6.92000        7.35100       -2.19100
O          7.49200        8.44100       -2.09300
N          6.32800        6.97800       -3.34200
C          5.62500        5.72900       -3.60300
H          4.94700        5.46900       -2.79000
H          6.35400        4.93200       -3.75800
C          4.82800        5.96000       -4.88700
H          3.85200        6.38200       -4.64100
H          4.71600        5.04200       -5.46400
C          5.66800        7.00100       -5.62900
H          5.06900        7.57400       -6.33800
H          6.49200        6.50200       -6.14200
C          6.22400        7.87000       -4.49600
H          7.21400        8.23300       -4.77100
C          5.31700        9.07500       -4.19600
O          4.35700        8.98800       -3.43800
N          5.58100       10.21600       -4.81700
H          4.98800       11.00700       -4.62500
H          6.37500       10.29000       -5.43000
