61
0 1
H          6.80500        7.06700        1.89800
C          5.91400        7.59100        2.24300
H          5.49000        7.08900        3.10900
H          5.18400        7.60500        1.43500
C          6.27900        9.02000        2.60500
O          5.59500        9.92300        2.13100
N          7.31500        9.25400        3.43700
C          7.99900        8.24000        4.22600
H          8.99100        8.06000        3.80800
H          7.44700        7.30300        4.29100
C          8.12100        8.85700        5.61400
H          8.92400        8.40000        6.19300
H          7.16700        8.77800        6.13800
C          8.41500       10.31800        5.28400
H          9.49200       10.43600        5.15000
H          8.06400       10.98300        6.07400
C          7.68000       10.58400        3.95700
H          6.76200       11.13200        4.17200
C          8.55600       11.46800        3.04200
O          8.98700       12.53300        3.47500
N          8.88800       11.02700        1.82500
H          8.44600       10.16400        1.53100
C          9.98500       11.52400        0.96100
H         10.88100       11.52600        1.58300
C         10.23600       10.49700       -0.17000
H         11.16200       10.76300       -0.68100
H         10.39400        9.51200        0.27300
C          9.11400       10.40400       -1.22700
H          8.93200       11.38400       -1.66600
H          9.43800        9.73800       -2.02700
C          7.82000        9.84700       -0.64700
O          7.81900        8.84900        0.05400
N          6.69800       10.50600       -0.81900
H          5.90000       10.17800       -0.29800
H          6.67800       11.37800       -1.31600
C          9.88800       12.97200        0.40400
O         10.49000       13.27200       -0.62600
N          9.15800       13.88700        1.04200
H          8.74500       13.61000        1.92600
C          8.89200       15.26000        0.57000
H          8.72900       15.20100       -0.50600
C          7.58100       15.77000        1.19400
H          7.76000       16.01600        2.24200
H          7.27200       16.68400        0.68600
C          6.45900       14.75400        1.10600
C          5.83300       14.50300       -0.13100
H          6.08700       15.10000       -0.99600
C          4.90800       13.44800       -0.24900
H          4.43700       13.22500       -1.19400
C          4.61600       12.64600        0.87400
O          3.83800       11.54300        0.74000
H          4.13900       10.87100        1.36800
C          5.20800       12.93100        2.12200
H          4.97300       12.31800        2.97800
C          6.13100       13.98300        2.23700
H          6.61800       14.17400        3.18500
C         10.06600       16.24800        0.76000
O          9.87200       17.42200        1.05500
N         11.30600       15.80200        0.62200
H         12.06600       16.44700        0.75400
H         11.45500       14.85100        0.31500
