56
0 1
H          9.27700        7.66500        3.32800
C          8.44000        7.77500        4.01600
H          7.52500        7.46700        3.51600
H          8.36600        8.81400        4.33200
C          8.67600        6.89000        5.22700
O          9.69000        6.19800        5.24800
N          7.77200        6.89200        6.22600
C          6.54500        7.67800        6.24200
H          5.93100        7.47200        5.36300
H          6.79400        8.73900        6.29000
C          5.79700        7.27000        7.51100
H          5.15400        6.41300        7.30100
H          5.21700        8.09600        7.92200
C          6.93000        6.85000        8.44400
H          6.57600        6.20500        9.24900
H          7.40700        7.73900        8.86100
C          7.90500        6.14800        7.49000
H          8.92000        6.25900        7.87200
C          7.61400        4.63400        7.37900
O          7.42900        3.95200        8.38700
N          7.53800        4.08900        6.16200
H          7.68000        4.70400        5.37200
C          7.10800        2.71700        5.85000
H          6.13700        2.55200        6.31700
C          6.93000        2.60500        4.32700
H          7.89800        2.74500        3.84400
H          6.57600        1.60300        4.08100
C          5.95900        3.60900        3.74800
N          6.18800        4.98200        3.61100
C          5.07600        5.48500        3.05600
H          4.93400        6.52900        2.80600
N          4.17100        4.51400        2.84800
H          3.25900        4.64100        2.43400
C          4.71000        3.32300        3.28000
H          4.24900        2.34500        3.25400
C          8.02200        1.59400        6.37900
O          7.73300        0.42300        6.15600
N          9.11000        1.92700        7.07800
H          9.24800        2.91100        7.27900
C         10.02100        0.97200        7.72300
H         10.15300        0.11900        7.05600
C         11.40500        1.61600        7.96400
H         11.34900        2.28600        8.82300
H         12.09900        0.81500        8.22600
C         11.99500        2.38300        6.76200
H         13.06200        2.52900        6.92600
H         11.87100        1.79100        5.85500
C         11.36600        3.76200        6.56000
O         10.68000        4.34500        7.39000
O         11.56000        4.30500        5.34400
H         10.99200        5.09800        5.32100
C          9.46200        0.42800        9.05400
O          9.97900       -0.54200        9.59400
N          8.42600        1.03900        9.62300
H          8.02400        1.86000        9.19200
H          8.07200        0.67200       10.49000
