54
0 1
H          7.20800        4.19200        3.21800
C          6.26100        4.14900        2.68200
H          5.51600        4.73100        3.22200
H          5.94200        3.11200        2.60100
C          6.45400        4.73300        1.29400
O          7.54100        5.22500        1.01200
N          5.42300        4.72200        0.42800
C          4.08200        4.22900        0.71500
H          3.69200        4.64300        1.64600
H          4.09800        3.14000        0.76400
C          3.21500        4.67900       -0.46000
H          2.84600        5.69000       -0.28200
H          2.38700        3.99200       -0.63900
C          4.20800        4.68800       -1.62000
H          3.87000        5.32900       -2.43600
H          4.35400        3.66900       -1.98100
C          5.50300        5.18700       -0.96600
H          6.35300        4.70800       -1.45500
C          5.68400        6.71100       -1.13500
O          5.69100        7.20900       -2.25600
N          5.82300        7.45900       -0.03900
H          5.82700        6.98700        0.85200
C          6.13700        8.88700       -0.02100
H          6.72800        9.12800       -0.90300
C          4.82600        9.68900       -0.09400
H          4.31800        9.45600       -1.02900
H          4.17200        9.38100        0.72400
C          5.02300       11.20800        0.00200
H          4.04700       11.68200       -0.10600
H          5.39100       11.44900        1.00000
S          6.15200       11.95600       -1.20900
C          5.37900       11.45800       -2.77300
H          4.34100       11.78900       -2.79400
H          5.91900       11.91600       -3.60300
H          5.42200       10.37400       -2.88100
C          6.93800        9.19500        1.25800
O          6.40300        8.96600        2.34400
N          8.20000        9.66700        1.18000
C          8.97600       10.00900        2.36500
H          8.95100        9.20400        3.10200
H          8.57700       10.92600        2.80200
C         10.40700       10.24300        1.88600
H         10.95400        9.29900        1.87800
H         10.92200       10.98500        2.49700
C         10.19600       10.73200        0.45500
H         11.08800       10.59200       -0.15800
H          9.91200       11.78600        0.46800
C          9.00800        9.89100       -0.02800
H          8.45000       10.47500       -0.75700
C          9.49200        8.60700       -0.73400
O         10.10000        8.68400       -1.79200
N          9.25900        7.41700       -0.19300
H          9.57100        6.59900       -0.68900
H          8.75200        7.32300        0.67300
