54
0 1
H          8.23300        2.48800        5.23800
C          7.82400        2.32500        4.24300
H          7.17400        3.15900        3.98200
H          7.25000        1.40000        4.21800
C          8.95800        2.25000        3.23600
O          9.08800        3.18300        2.45100
N          9.76800        1.17100        3.23300
C          9.82400        0.17200        4.29300
H          9.22400       -0.69400        4.00900
H          9.48900        0.56300        5.25400
C         11.29400       -0.22100        4.38800
H         11.42300       -1.20600        4.83900
H         11.84800        0.53900        4.94200
C         11.71000       -0.20700        2.92100
H         11.40900       -1.15600        2.47500
H         12.78500       -0.06000        2.80800
C         10.91100        0.96700        2.32400
H         11.53300        1.86100        2.37600
C         10.53800        0.75200        0.83800
O         10.85200       -0.27600        0.24000
N          9.83900        1.71100        0.23000
H          9.60500        2.53500        0.77200
C          9.42600        1.66000       -1.17600
H          8.92800        0.70500       -1.33000
C          8.42300        2.78600       -1.47800
H          8.89400        3.74800       -1.27300
H          8.15900        2.75500       -2.53600
C          7.13500        2.68200       -0.65300
H          7.38300        2.70700        0.40800
H          6.52200        3.55700       -0.87000
S          6.14300        1.20100       -0.98900
C          4.79600        1.46800        0.19300
H          4.28600        2.40300       -0.03800
H          4.08600        0.64400        0.12600
H          5.20100        1.51500        1.20400
C         10.63400        1.75600       -2.13300
O         11.54700        2.54500       -1.87200
N         10.64300        1.02100       -3.26500
C          9.63500        0.04300       -3.65700
H          8.64100        0.48900       -3.69800
H          9.64600       -0.78800       -2.94900
C         10.04300       -0.46300       -5.04000
H          9.60000        0.17000       -5.81100
H          9.76200       -1.50600       -5.18900
C         11.55900       -0.27900       -5.02700
H         11.97900       -0.23800       -6.03300
H         12.01700       -1.09600       -4.46700
C         11.73300        1.03100       -4.24600
H         12.69200        1.00500       -3.72800
C         11.71100        2.29500       -5.13400
O         11.50400        2.23900       -6.34100
N         11.89700        3.47000       -4.55200
H         11.87900        4.29900       -5.12000
H         12.03300        3.50800       -3.54900
