59
0 1
H         16.86200        2.94700        7.51500
C         17.83500        3.43200        7.44900
H         17.71700        4.40900        6.98500
H         18.50900        2.81200        6.86100
C         18.39100        3.60400        8.85100
O         17.70200        3.26500        9.80500
N         19.62000        4.13100        9.00800
C         20.52100        4.55100        7.94400
H         20.01900        5.20000        7.22500
H         20.92100        3.66900        7.44000
C         21.65400        5.30800        8.63600
H         21.38800        6.36200        8.73300
H         22.59900        5.19800        8.10200
C         21.70300        4.65700       10.01900
H         22.15700        5.31500       10.76100
H         22.25600        3.71800        9.95900
C         20.23000        4.36100       10.32300
H         20.15800        3.45900       10.93100
C         19.58300        5.51700       11.10700
O         19.74900        5.59600       12.32300
N         18.85300        6.40600       10.42200
H         18.68700        6.21600        9.44600
C         18.13800        7.55600       10.97900
H         18.09200        7.45600       12.06400
C         18.87000        8.86600       10.62900
H         18.92600        8.94100        9.54100
H         18.27200        9.70600       10.98500
C         20.29300        8.99900       11.20500
H         20.89900        8.14800       10.89500
C         20.94700       10.26900       10.66000
H         21.96400       10.35300       11.04400
H         20.99000       10.22400        9.57200
H         20.37500       11.14600       10.96200
C         20.29500        9.08600       12.73300
H         19.67400        9.91700       13.06600
H         19.92100        8.15600       13.16000
H         21.31400        9.23300       13.09000
C         16.69200        7.56400       10.46400
O         16.42600        7.14900        9.33700
N         15.76700        7.99500       11.32200
H         16.09100        8.30500       12.22400
C         14.33700        7.65800       11.22900
H         14.00500        7.72400       10.19100
C         14.13100        6.20700       11.72800
H         13.12900        6.08900       12.14100
H         14.21100        5.54100       10.86800
C         15.15500        5.76400       12.75400
N         15.36100        6.35100       14.00700
C         16.51400        5.83900       14.46700
H         16.97600        6.11300       15.40700
N         17.04700        4.99600       13.56800
H         17.97900        4.59900       13.61400
C         16.20100        4.93000       12.48600
H         16.37800        4.41000       11.55300
C         13.46700        8.63200       12.03400
O         12.54500        9.23200       11.49900
N         13.76200        8.84100       13.31000
H         14.45700        8.26000       13.75900
H         13.19000        9.48200       13.83400
