61
0 1
H         11.95300        5.11600       -6.12900
C         13.03100        5.14700       -6.27600
H         13.35100        6.16800       -6.47700
H         13.29600        4.51100       -7.11900
C         13.73500        4.63700       -5.03200
O         14.57500        3.75100       -5.15500
N         13.40800        5.15000       -3.83000
C         12.46500        6.23400       -3.59200
H         11.45600        5.82600       -3.51800
H         12.50900        6.99300       -4.37400
C         12.87800        6.84500       -2.25400
H         12.03300        7.30300       -1.73900
H         13.67700        7.57200       -2.41200
C         13.42300        5.63700       -1.49400
H         12.59000        5.07400       -1.06800
H         14.12200        5.93400       -0.71100
C         14.11400        4.81400       -2.58600
H         15.14800        5.14900       -2.68000
C         14.12900        3.32100       -2.22200
O         15.03300        2.87200       -1.52400
N         13.16800        2.53700       -2.72200
H         12.46900        2.96400       -3.31200
C         13.12000        1.07700       -2.57000
H         13.19600        0.84500       -1.50600
C         11.76300        0.54800       -3.07100
H         11.75600       -0.53600       -2.95000
H         10.96600        0.95100       -2.44500
C         11.45000        0.86800       -4.54200
H         12.34300        0.72000       -5.15100
H         10.69800        0.15500       -4.88200
S         10.78900        2.53500       -4.83600
C         10.49400        2.42800       -6.61900
H         11.44000        2.27000       -7.13400
H          9.82200        1.59700       -6.83400
H         10.04400        3.35600       -6.97300
C         14.28400        0.33400       -3.25500
O         14.49300       -0.84000       -2.96800
N         15.04500        0.99300       -4.13600
H         14.79800        1.94600       -4.37700
C         16.27500        0.45200       -4.72600
H         16.19700       -0.63500       -4.76000
C         16.40800        0.95600       -6.17200
H         16.65200        2.01900       -6.14000
H         17.24600        0.44400       -6.64500
C         15.17900        0.75700       -7.05000
C         14.69000        1.82900       -7.82200
H         15.18700        2.78800       -7.78200
C         13.55700        1.65500       -8.63900
H         13.17900        2.47000       -9.23700
C         12.90200        0.40700       -8.67900
O         11.79600        0.25200       -9.45100
H         11.54400       -0.66900       -9.53100
C         13.39000       -0.67000       -7.90900
H         12.89200       -1.62700       -7.93600
C         14.53000       -0.49400       -7.10100
H         14.90500       -1.32200       -6.51500
C         17.54200        0.75900       -3.90100
O         18.64200        0.38100       -4.28700
N         17.43900        1.44600       -2.76900
H         18.27700        1.62900       -2.24400
H         16.53700        1.76200       -2.43900
