64
0 1
H          7.91000        6.35800        5.13700
C          7.11000        5.63300        5.00000
H          6.62700        5.78400        4.03700
H          6.37700        5.74900        5.79700
C          7.68900        4.23100        5.06500
O          7.31900        3.48300        5.96500
N          8.57500        3.84700        4.12900
C          9.07100        4.65200        3.02100
H          9.36500        5.64900        3.35100
H          8.30200        4.72000        2.25100
C         10.28700        3.90400        2.47500
H         11.18500        4.22600        3.00400
H         10.40300        4.05200        1.40100
C          9.98000        2.44500        2.81700
H         10.88900        1.84600        2.89300
H          9.31300        2.02800        2.06100
C          9.23600        2.54500        4.15300
H          8.48800        1.75300        4.21000
C         10.18700        2.42200        5.35400
O         10.98700        3.31800        5.62100
N         10.12600        1.29000        6.05800
H          9.45100        0.58700        5.79300
C         10.93200        1.00700        7.24800
H         11.91100        1.47200        7.12100
C         10.24400        1.64000        8.47400
H         10.09600        2.70400        8.28500
H          9.25900        1.18900        8.60200
C         11.02100        1.48600        9.78800
H         10.50900        2.06900       10.55400
H         10.98100        0.44200       10.09700
S         12.76500        1.99700        9.75400
C         12.62700        3.72000        9.20600
H         12.22000        3.75800        8.19500
H         11.97600        4.27100        9.88400
H         13.61800        4.17500        9.20500
C         11.14700       -0.50300        7.41800
O         10.30600       -1.30400        7.00800
N         12.27500       -0.90300        8.00600
H         12.89900       -0.19800        8.37900
C         12.57300       -2.30000        8.33400
H         12.20900       -2.93300        7.52400
C         14.09400       -2.49600        8.43600
H         14.30200       -3.46900        8.88400
H         14.49600       -2.51800        7.42300
C         14.84200       -1.43800        9.19300
C         15.02400       -1.40600       10.53200
H         14.65100       -2.15300       11.22300
N         15.70300       -0.25500       10.88200
H         15.90700       -0.00100       11.83600
C         15.97100        0.53100        9.78200
C         16.59100        1.77900        9.62500
H         16.98100        2.30600       10.48200
C         16.68100        2.33900        8.33900
H         17.15000        3.30400        8.19900
C         16.15400        1.64700        7.23400
H         16.22100        2.08500        6.24700
C         15.53500        0.39200        7.40400
H         15.13100       -0.12700        6.54800
C         15.42900       -0.19900        8.68300
C         11.85800       -2.74700        9.62100
O         11.80000       -2.03200       10.61400
N         11.33300       -3.96400        9.64300
H         10.86100       -4.25700       10.48300
H         11.36400       -4.54800        8.82500
