64
0 1
H         12.36200        6.46900        0.04100
C         11.72200        7.10100        0.65300
H         11.61400        8.07400        0.17500
H         12.16300        7.23000        1.63900
C         10.35300        6.45800        0.78400
O          9.36300        7.11100        0.45700
N         10.26700        5.19600        1.25000
C         11.35000        4.44100        1.86300
H         11.92300        5.05200        2.56100
H         12.00200        4.04200        1.08500
C         10.67000        3.29400        2.60900
H         10.33200        3.63800        3.58900
H         11.32500        2.42800        2.70700
C          9.46400        3.00000        1.71900
H          8.66900        2.49700        2.27100
H          9.77900        2.38800        0.87200
C          9.04100        4.38700        1.21500
H          8.69000        4.30200        0.18600
C          7.88100        4.94100        2.05500
O          6.73200        4.57500        1.81700
N          8.16400        5.82800        3.01200
H          9.13500        6.07900        3.15500
C          7.17400        6.51400        3.85300
H          6.18000        6.33200        3.44600
C          7.21300        5.93200        5.28000
H          8.06000        6.37400        5.80400
H          6.30900        6.23900        5.80700
C          7.34100        4.43700        5.38100
C          6.54500        3.53600        4.76300
H          5.70600        3.79300        4.12400
N          7.00900        2.25900        5.00200
H          6.57300        1.43300        4.61800
C          8.13700        2.27000        5.79300
C          8.97200        1.25600        6.28300
H          8.77300        0.22200        6.04400
C         10.06400        1.60400        7.09700
H         10.71400        0.83400        7.49000
C         10.29900        2.95400        7.41500
H         11.12900        3.21400        8.05800
C          9.45300        3.96300        6.91400
H          9.62700        4.99300        7.18000
C          8.35800        3.65100        6.07800
C          7.38500        8.03900        3.82500
O          7.00300        8.74400        4.75600
N          8.06700        8.53800        2.78400
H          8.33900        7.88700        2.05800
C          8.73600        9.84700        2.79300
H          8.29100       10.47300        3.56800
C         10.22700        9.64700        3.12700
H         10.74600        9.33000        2.22300
H         10.65200       10.60700        3.42500
C         10.52300        8.62500        4.20100
N         10.76200        7.26200        3.98300
C         10.93400        6.72000        5.19700
H         11.14100        5.67300        5.37700
N         10.79900        7.65600        6.15300
H         10.86500        7.49500        7.14800
C         10.53500        8.86200        5.54400
H         10.34200        9.81300        6.02200
C          8.60200       10.62100        1.47400
O          8.71900       11.83900        1.46100
N          8.36200        9.95500        0.35100
H          8.27000       10.47800       -0.50300
H          8.33700        8.94500        0.35500
