63
0 1
H          7.26900        5.79800        6.58200
C          7.04600        6.85500        6.45100
H          6.36700        7.19100        7.23200
H          6.58300        7.00500        5.47700
C          8.33500        7.65000        6.51700
O          8.70000        8.26800        5.52000
N          9.04000        7.66600        7.66300
C          8.71400        6.95700        8.89100
H          8.38600        5.93700        8.69300
H          7.93600        7.50300        9.42700
C         10.00100        6.94800        9.71300
H         10.61700        6.09500        9.42700
H          9.79700        6.93100       10.78400
C         10.69000        8.24400        9.28500
H         11.77000        8.19500        9.42600
H         10.27400        9.07800        9.85300
C         10.30100        8.39200        7.80800
H         10.14200        9.44900        7.59000
C         11.36600        7.83800        6.85100
O         11.83500        6.71300        7.00900
N         11.73900        8.64500        5.85200
H         11.24100        9.52000        5.79000
C         12.61500        8.32800        4.70900
H         12.66600        9.23000        4.09900
C         14.05800        8.02500        5.17000
H         14.06200        7.06700        5.69100
H         14.67900        7.91000        4.28000
C         14.70700        9.08000        6.08600
H         14.11900        9.18900        6.99800
C         16.11100        8.62100        6.48200
H         16.73700        8.51800        5.59500
H         16.56100        9.34800        7.15800
H         16.05100        7.66000        6.99300
C         14.82700       10.44700        5.41000
H         15.34800       11.14100        6.07100
H         15.38400       10.35500        4.47700
H         13.83800       10.85100        5.20200
C         12.08600        7.24600        3.74400
O         12.22300        7.41900        2.53700
N         11.47100        6.16500        4.23200
H         11.41600        6.06700        5.24000
C         10.92100        5.08800        3.39300
H         11.56400        4.99000        2.51700
C         10.99700        3.75000        4.14600
H         10.73300        2.95000        3.45200
H         12.03300        3.57700        4.43900
C         10.11000        3.62200        5.37400
C         10.65300        3.81100        6.65900
H         11.69400        4.08300        6.77100
C          9.84900        3.64000        7.80200
H         10.27400        3.78200        8.78300
C          8.49000        3.28700        7.65900
O          7.70600        3.13100        8.75700
H          8.22700        3.00900        9.55100
C          7.94300        3.10100        6.37300
H          6.90500        2.82400        6.27300
C          8.75400        3.26300        5.23300
H          8.33800        3.10000        4.24700
C          9.50700        5.36100        2.83800
O          8.96400        4.55100        2.09600
N          8.86700        6.47300        3.17600
H          7.95300        6.63200        2.78900
H          9.28500        7.13400        3.81400
