51
0 1
H         10.08000        0.28400        1.15300
C          9.70000        1.10600        1.75600
H         10.38100        1.29400        2.58400
H          8.71400        0.86200        2.14700
C          9.60500        2.35900        0.90400
O         10.22200        3.35900        1.25700
N          8.86000        2.33200       -0.21500
C          8.09600        1.20100       -0.72300
H          7.50800        0.72900        0.06500
H          8.77700        0.47700       -1.17200
C          7.16700        1.77200       -1.79500
H          6.23100        2.09300       -1.33600
H          6.97600        1.05000       -2.58900
C          7.93700        2.99100       -2.30700
H          7.26900        3.74100       -2.73500
H          8.66900        2.67000       -3.05000
C          8.66800        3.50700       -1.06300
H          9.63800        3.89200       -1.36900
C          7.85400        4.59600       -0.33200
O          6.77000        4.29600        0.17900
N          8.31300        5.86400       -0.29700
C          9.64500        6.32200       -0.66100
H          9.69400        6.48100       -1.73900
H         10.41600        5.61800       -0.34300
C          9.83200        7.64800        0.07300
H         10.52900        8.30500       -0.44700
H         10.16700        7.45800        1.09400
C          8.41500        8.22000        0.09300
H          8.20900        8.70200       -0.86400
H          8.27600        8.92400        0.91400
C          7.53800        6.97400        0.25900
H          7.40300        6.77700        1.32100
C          6.17200        7.14600       -0.43800
O          6.08800        6.94100       -1.65000
N          5.10600        7.55600        0.27900
C          3.79800        7.76900       -0.32800
H          3.45300        6.87100       -0.84300
H          3.85900        8.60000       -1.03200
C          2.85000        8.12700        0.81400
H          2.41800        7.21700        1.23500
H          2.06700        8.81300        0.49100
C          3.79000        8.77200        1.83100
H          3.37200        8.75100        2.83800
H          3.99700        9.80100        1.53200
C          5.06800        7.93400        1.69800
H          5.92300        8.56500        1.94000
C          5.06100        6.75300        2.69300
O          5.01400        6.97100        3.89600
N          5.10400        5.50300        2.25200
H          5.22400        5.29800        1.27000
H          5.11400        4.76100        2.93100
