56
0 1
H          8.50900        7.68900        4.08800
C          9.06000        8.61500        3.93400
H          8.47800        9.29100        3.30900
H         10.00600        8.39100        3.44500
C          9.33200        9.26800        5.27900
O          8.89800        8.72600        6.29200
N         10.04600       10.40700        5.32300
C         10.51200       11.15700        4.16500
H          9.68900       11.39400        3.48900
H         11.27800       10.58200        3.64200
C         11.12300       12.44200        4.72100
H         10.34700       13.20100        4.83200
H         11.93500       12.80900        4.09200
C         11.62000       12.00400        6.09800
H         11.73500       12.85100        6.77500
H         12.57100       11.47800        5.99000
C         10.54200       11.01800        6.56300
H         11.00500       10.25300        7.18700
C          9.47700       11.73300        7.41700
O          9.76800       12.09500        8.55300
N          8.25900       11.93900        6.90500
H          8.09800       11.60000        5.96200
C          7.18900       12.77500        7.49000
H          7.61300       13.76800        7.64400
C          6.05000       12.92600        6.45900
H          5.32000       13.63300        6.85800
H          6.44500       13.37000        5.54400
C          5.30800       11.61500        6.12200
H          5.04900       11.09000        7.04200
H          4.37600       11.86400        5.61600
C          6.09400       10.68400        5.20100
O          6.92600       11.09600        4.40700
N          5.92000        9.39000        5.30500
H          6.49900        8.80800        4.73100
H          5.45900        9.00800        6.12500
C          6.63500       12.35100        8.87300
O          5.66800       12.94100        9.34700
N          7.22000       11.34800        9.52900
H          8.02500       10.92100        9.09200
C          6.88100       10.90900       10.89000
H          6.47000       11.77100       11.41800
C          5.77000        9.83600       10.85000
H          5.37700        9.72300       11.86100
H          4.95000       10.19800       10.22700
C          6.19000        8.44000       10.35400
H          6.97500        8.03800       10.99500
H          5.33200        7.77200       10.42700
C          6.66600        8.43800        8.90700
O          5.92300        8.41800        7.93300
O          8.00700        8.51600        8.75900
H          8.22000        8.49000        7.80600
C          8.11700       10.47600       11.70900
O          7.99100        9.83200       12.74300
N          9.33100       10.79700       11.27100
H          9.44800       11.34300       10.42800
H         10.12400       10.49900       11.81300
