59
0 1
H         11.76400        0.39600       -1.70200
C         11.41400        1.35400       -1.32200
H         10.61000        1.72400       -1.95800
H         12.23200        2.07100       -1.32000
C         10.88700        1.17700        0.09000
O          9.71000        1.44100        0.31700
N         11.72100        0.73900        1.05100
C         13.12600        0.39700        0.86000
H         13.68200        1.22900        0.42400
H         13.20200       -0.48200        0.22000
C         13.67900        0.07000        2.24900
H         14.08800        0.97200        2.70500
H         14.43500       -0.71400        2.20700
C         12.43400       -0.38200        3.01400
H         12.55600       -0.28300        4.09400
H         12.21200       -1.42000        2.76000
C         11.33300        0.52600        2.45000
H         10.37700        0.00400        2.49900
C         11.19300        1.86900        3.19200
O         12.03000        2.22600        4.01800
N         10.17800        2.66000        2.82000
H          9.58000        2.27300        2.09600
C         10.00600        4.10300        3.08400
H          9.09000        4.40600        2.57600
C          9.81100        4.41300        4.58700
H         10.70200        4.11100        5.13700
H          9.75000        5.49800        4.68100
C          8.57400        3.83900        5.31100
H          8.54800        4.30300        6.29700
C          7.26500        4.19700        4.60500
H          7.21600        5.27400        4.44500
H          7.19600        3.68300        3.64600
H          6.42200        3.89600        5.22700
C          8.61400        2.32600        5.53500
H          8.45400        1.79300        4.60100
H          9.57800        2.04400        5.95800
H          7.82700        2.04500        6.23500
C         11.10500        4.98200        2.45000
O         10.80500        6.04400        1.91000
N         12.35600        4.51700        2.43000
H         12.52900        3.67300        2.96400
C         13.46600        5.05100        1.63400
H         13.48200        6.13600        1.74300
C         14.79900        4.49500        2.16900
H         14.79800        3.40600        2.08900
H         15.60900        4.88500        1.55300
C         15.05900        4.88100        3.63200
H         15.03800        5.96800        3.72200
H         14.25500        4.47700        4.24800
S         16.62600        4.27200        4.31600
C         17.82400        5.27700        3.39600
H         17.60700        6.33400        3.54400
H         18.82800        5.06200        3.76100
H         17.77400        5.03700        2.33500
C         13.27600        4.74200        0.13500
O         13.99100        3.94200       -0.45800
N         12.27100        5.33300       -0.49600
H         12.12400        5.13200       -1.47000
H         11.64600        5.93400        0.02600
