59
0 1
H          5.76400        0.80000        0.46900
C          6.75800        0.35800        0.41200
H          6.72600       -0.56500       -0.16300
H          7.11300        0.14200        1.41900
C          7.70500        1.34300       -0.24800
O          8.64000        1.78700        0.41300
N          7.48700        1.70000       -1.52700
C          6.45600        1.15400       -2.40100
H          5.46300        1.26600       -1.96400
H          6.66700        0.10200       -2.59600
C          6.54800        1.94400       -3.70700
H          5.88500        2.80700       -3.66100
H          6.31000        1.32400       -4.57200
C          8.00300        2.41400       -3.72900
H          8.13200        3.30400       -4.34700
H          8.63900        1.60600       -4.09400
C          8.31000        2.67500       -2.25100
H          9.36800        2.48200       -2.06500
C          8.02600        4.14100       -1.87000
O          8.78100        5.02800       -2.25800
N          6.94700        4.40900       -1.12700
H          6.38600        3.63200       -0.80800
C          6.57600        5.72300       -0.59500
H          7.50000        6.25300       -0.36000
C          5.81500        6.56100       -1.64800
H          5.89400        7.60300       -1.33500
H          6.32900        6.48000       -2.60700
C          4.31400        6.25700       -1.84800
H          3.79100        6.34500       -0.89600
C          3.71600        7.29000       -2.80500
H          4.20600        7.22900       -3.77800
H          2.64900        7.10800       -2.92700
H          3.85100        8.29200       -2.39700
C          4.04200        4.87200       -2.43700
H          4.34900        4.10300       -1.73000
H          2.97400        4.75400       -2.61900
H          4.58400        4.75600       -3.37500
C          5.79200        5.56200        0.71600
O          5.15800        4.53000        0.93200
N          5.83500        6.58500        1.57300
H          6.29500        7.43600        1.28400
C          5.31900        6.55600        2.94900
H          4.56700        5.76900        3.03500
C          6.46400        6.22600        3.92400
H          7.25500        6.97100        3.82300
H          6.08800        6.26800        4.94600
C          7.04500        4.85500        3.70200
N          6.49700        3.67100        4.19400
C          7.19700        2.68200        3.62000
H          6.99200        1.62900        3.75700
N          8.14300        3.18100        2.80700
H          8.69300        2.63400        2.14600
C          8.06800        4.55300        2.85100
H          8.63700        5.25400        2.25700
C          4.65600        7.88500        3.32300
O          4.95700        8.92600        2.75000
N          3.76100        7.88000        4.30100
H          3.53000        7.02200        4.77400
H          3.33000        8.75400        4.55300
