57
0 1
H          9.08100        9.17700        7.50000
C          9.47500        9.78900        8.31000
H          8.70500       10.47600        8.65800
H         10.33200       10.35900        7.95800
C          9.90700        8.89600        9.46000
O         11.09600        8.87000        9.76900
N          8.98200        8.16200       10.10600
C          7.59000        8.00600        9.70900
H          7.49700        7.81500        8.63900
H          7.03000        8.90100        9.98500
C          7.07400        6.80600       10.50000
H          7.31100        5.88400        9.96700
H          6.00300        6.87700       10.69200
C          7.89100        6.88100       11.79100
H          7.95400        5.91200       12.28700
H          7.44200        7.61700       12.46000
C          9.26000        7.39000       11.32300
H          9.67400        8.05000       12.08600
C         10.25100        6.23100       11.12300
O         10.88500        5.80500       12.08400
N         10.42400        5.74600        9.88900
H          9.87200        6.14700        9.13900
C         11.45000        4.75900        9.52000
H         11.42300        3.95900       10.26100
C         11.09700        4.14300        8.14900
H         11.62500        3.19200        8.06100
H         10.02900        3.92300        8.12000
C         11.47100        4.99400        6.91700
H         12.55700        5.04000        6.83200
H         11.09700        4.50100        6.02000
C         10.90600        6.41100        6.95300
O          9.73800        6.63700        7.23200
N         11.71500        7.42100        6.74100
H         11.33900        8.34500        6.82900
H         12.71700        7.26000        6.65300
C         12.88700        5.32300        9.53000
O         13.83700        4.55800        9.39600
N         13.05100        6.64600        9.66600
H         12.22100        7.22100        9.75700
C         14.33600        7.35300        9.62400
H         14.11000        8.42000        9.62600
C         15.14400        7.07300       10.91100
H         15.51200        6.04600       10.90000
H         16.00300        7.74600       10.92900
C         14.32200        7.29000       12.19500
H         13.88500        8.28800       12.18600
H         13.51300        6.56100       12.23200
C         15.14800        7.14000       13.46800
O         16.33800        7.39800       13.52000
N         14.54200        6.72500       14.55800
H         15.12000        6.63000       15.37300
H         13.56900        6.47700       14.53400
C         15.09400        7.09200        8.30200
O         14.49300        7.06900        7.22900
N         16.41400        6.95200        8.32400
H         16.88900        6.77800        7.45400
H         16.90700        6.95600        9.20200
