56
0 1
H          7.80800        8.11400       -1.20900
C          8.51600        7.43800       -1.68400
H          9.32400        8.00500       -2.14400
H          8.00300        6.85600       -2.44800
C          9.08800        6.49100       -0.64500
O          8.89600        5.28700       -0.78300
N          9.78100        6.99800        0.39200
C         10.07700        8.41000        0.60300
H          9.16700        9.01100        0.61200
H         10.75100        8.75900       -0.18000
C         10.77900        8.50000        1.95900
H         10.03900        8.63400        2.75000
H         11.51500        9.30400        1.98100
C         11.43400        7.12600        2.09100
H         11.66100        6.87400        3.12700
H         12.34800        7.10300        1.49500
C         10.39200        6.19400        1.45600
H         10.90600        5.33600        1.02000
C          9.34400        5.65600        2.45300
O          9.32900        6.01600        3.63000
N          8.42700        4.81400        1.97100
H          8.49500        4.56900        0.98900
C          7.39400        4.16500        2.78200
H          6.85800        4.94700        3.31400
C          6.40500        3.42300        1.86200
H          6.96400        2.68000        1.29000
H          5.68400        2.88600        2.48000
C          5.63200        4.32100        0.87600
H          6.33200        4.86400        0.24300
C          4.74900        3.45300       -0.02000
H          4.22600        4.08200       -0.74100
H          5.37000        2.74300       -0.56700
H          4.02000        2.90900        0.58000
C          4.73100        5.33100        1.59300
H          4.05300        4.81700        2.27400
H          5.33600        6.04500        2.15100
H          4.14700        5.88700        0.85900
C          8.01200        3.20500        3.82500
O          9.02600        2.57000        3.53300
N          7.41200        3.05100        5.02400
C          7.92200        2.13300        6.03400
H          8.96700        2.34400        6.26700
H          7.82100        1.10900        5.67200
C          7.04900        2.33200        7.27200
H          7.46600        3.12500        7.89400
H          6.93900        1.40900        7.84200
C          5.72300        2.79000        6.66800
H          5.11200        3.32900        7.39400
H          5.17800        1.92400        6.28900
C          6.16400        3.67100        5.49200
H          5.40200        3.61800        4.71500
C          6.28700        5.14600        5.92600
O          5.29400        5.75800        6.29500
N          7.46400        5.75600        5.89600
H          7.50400        6.72400        6.16700
H          8.27800        5.29900        5.51300
