57
0 1
H         -1.26300       13.47000        2.50700
C         -1.13000       13.88300        1.50900
H         -1.79200       14.73400        1.36200
H         -1.35600       13.11800        0.76700
C          0.31100       14.32500        1.33400
O          0.95900       13.86200        0.40100
N          0.84400       15.19800        2.21100
C          0.14000       15.85900        3.30000
H          0.15200       15.21700        4.18200
H         -0.88600       16.11100        3.03100
C          0.93100       17.13600        3.57400
H          0.82100       17.46700        4.60700
H          0.61900       17.91900        2.88100
C          2.36400       16.71000        3.26100
H          2.77900       16.18400        4.12300
H          2.99100       17.56300        2.99900
C          2.20100       15.74500        2.08000
H          2.25500       16.31100        1.14900
C          3.32500       14.69700        2.07200
O          4.40100       14.95200        1.53700
N          3.07800       13.50300        2.62100
H          2.15100       13.32300        2.98400
C          4.00500       12.36600        2.59500
H          4.97300       12.68200        2.98500
C          3.43700       11.26200        3.49900
H          4.16600       10.45500        3.57800
H          3.26600       11.66100        4.49900
C          2.14300       10.70200        2.96600
N          0.89600       11.32900        3.04600
C          0.07600       10.59300        2.27700
H         -0.96400       10.82600        2.08900
N          0.74200        9.57100        1.71500
H          0.39300        8.97900        0.96200
C          2.04900        9.62600        2.13700
H          2.86800        9.00500        1.80000
C          4.25400       11.81200        1.17900
O          5.20700       11.06400        0.98800
N          3.42500       12.16600        0.18800
H          2.63100       12.75700        0.41100
C          3.64700       11.82000       -1.22100
H          3.94400       10.77200       -1.27000
C          2.34200       12.00800       -2.02200
H          2.04800       13.05700       -1.96000
H          2.53400       11.79200       -3.07400
C          1.15500       11.14400       -1.55300
H          0.92600       11.37600       -0.51500
H          0.28800       11.42000       -2.15200
C          1.33900        9.63100       -1.68400
O          0.68200        8.85200       -1.01100
N          2.21600        9.13400       -2.53100
H          2.78500        9.73800       -3.09800
H          2.28700        8.13300       -2.56000
C          4.78400       12.62600       -1.88000
O          5.17000       12.32500       -3.00400
N          5.32900       13.65400       -1.23600
H          5.00800       13.90700       -0.31100
H          6.07600       14.15700       -1.68300
