65
0 1
H         13.67800        0.85200        0.45400
C         13.70400        0.09300        1.23400
H         13.28300        0.49900        2.15000
H         14.73300       -0.21600        1.40500
C         12.88600       -1.10500        0.78800
O         12.36000       -1.07500       -0.32100
N         12.76900       -2.16300        1.61100
C         13.37300       -2.27100        2.93400
H         13.06400       -1.44900        3.58000
H         14.45900       -2.28500        2.83700
C         12.89400       -3.60400        3.51100
H         11.95400       -3.45900        4.04600
H         13.64300       -4.05500        4.16200
C         12.65300       -4.44000        2.25500
H         11.98900       -5.28500        2.44300
H         13.60900       -4.80100        1.87200
C         12.06900       -3.40900        1.27800
H         12.31800       -3.70800        0.26000
C         10.53300       -3.26800        1.36200
O          9.86500       -4.01900        2.06900
N          9.96800       -2.27700        0.66600
H         10.58800       -1.68400        0.12400
C          8.56700       -1.84600        0.80500
H          8.04900       -2.53100        1.47600
C          8.53000       -0.44700        1.44800
H          8.80700        0.27900        0.68400
H          7.50400       -0.22700        1.74600
C          9.42800       -0.24100        2.65900
C          9.42300       -1.16800        3.72200
H          8.77900       -2.03600        3.67800
C         10.26900       -0.98100        4.83200
H         10.26700       -1.70200        5.63500
C         11.11600        0.14600        4.88700
O         11.94300        0.32900        5.94800
H         11.73100       -0.26200        6.67100
C         11.11400        1.08100        3.83100
H         11.75700        1.94500        3.89100
C         10.27200        0.88600        2.71900
H         10.26400        1.60800        1.91400
C          7.77500       -1.87100       -0.51600
O          6.65300       -1.37000       -0.57500
N          8.35500       -2.42600       -1.58500
H          9.24100       -2.88900       -1.45800
C          7.86600       -2.27900       -2.96000
H          6.82500       -1.95500       -2.93100
C          8.68100       -1.19400       -3.68800
H          9.62900       -1.63300       -4.00600
H          8.14500       -0.89900       -4.59000
C          8.98300        0.05300       -2.87100
C         10.29400        0.28700       -2.40900
H         11.08700       -0.40900       -2.64700
C         10.57700        1.41400       -1.61500
H         11.58100        1.57400       -1.25400
C          9.54300        2.31200       -1.27500
O          9.81000        3.39500       -0.50000
H         10.75000        3.55400       -0.42500
C          8.22900        2.07500       -1.73000
H          7.44200        2.75800       -1.45000
C          7.95100        0.94800       -2.52800
H          6.93700        0.75500       -2.85000
C          7.92200       -3.60700       -3.72800
O          8.79600       -4.43700       -3.50200
N          7.01600       -3.81900       -4.67300
H          7.05800       -4.68800       -5.18000
H          6.30200       -3.13500       -4.85600
