54
0 1
H          4.53400        5.25500        5.25900
C          4.57600        4.16700        5.23500
H          3.56500        3.76600        5.26400
H          5.14500        3.80900        6.09100
C          5.25400        3.72400        3.95200
O          5.54700        4.58300        3.12200
N          5.51200        2.41400        3.77000
C          5.12500        1.32900        4.66200
H          4.11600        1.46800        5.05100
H          5.84100        1.26200        5.48200
C          5.18300        0.05800        3.81600
H          4.23800       -0.07500        3.28800
H          5.41500       -0.82000        4.41900
C          6.29400        0.37100        2.81400
H          6.20200       -0.22900        1.90700
H          7.26500        0.20300        3.28300
C          6.10800        1.86900        2.54700
H          7.08200        2.32900        2.38000
C          5.22800        2.12600        1.31500
O          4.01300        2.27800        1.42900
N          5.84800        2.17700        0.13300
H          6.82800        1.94400        0.08400
C          5.21200        2.62500       -1.11100
H          4.14600        2.70600       -0.93000
C          5.74200        4.02200       -1.49200
H          6.82200        3.96600       -1.63700
H          5.29800        4.32700       -2.44000
C          5.44100        5.10600       -0.44400
H          5.99500        4.88800        0.46800
H          5.79100        6.06900       -0.81700
C          3.95400        5.23100       -0.12200
O          3.09100        5.14400       -0.98500
N          3.60000        5.42200        1.12700
H          2.61800        5.40900        1.32100
H          4.29700        5.32500        1.85900
C          5.42200        1.63600       -2.27300
O          6.47300        0.99400       -2.31700
N          4.48600        1.55400       -3.24400
C          4.69900        0.83900       -4.49100
H          4.30800       -0.17500       -4.39800
H          5.75400        0.81100       -4.77000
C          3.89800        1.61800       -5.52900
H          3.63000        0.99700       -6.38400
H          4.46300        2.49600       -5.84700
C          2.67000        2.05200       -4.73000
H          1.93500        1.24400       -4.74600
H          2.23200        2.96500       -5.13600
C          3.20200        2.26700       -3.30400
H          3.37500        3.33400       -3.16000
C          2.18600        1.77200       -2.26100
O          1.94100        0.57900       -2.13100
N          1.56400        2.67500       -1.51700
H          0.91900        2.34900       -0.81800
H          1.83200        3.65000       -1.56500
