59
0 1
H          1.62900       13.38000        3.87200
C          2.07700       13.48300        2.88400
H          3.15600       13.57800        2.99000
H          1.66700       14.36200        2.39200
C          1.75300       12.24400        2.06800
O          1.00900       11.40000        2.55400
N          2.28000       12.11800        0.83700
C          2.97600       13.17000        0.10300
H          3.92900       13.41600        0.57300
H          2.34200       14.05600        0.05000
C          3.20400       12.62400       -1.30800
H          4.19000       12.16000       -1.36900
H          3.10000       13.40300       -2.06400
C          2.12000       11.55300       -1.44600
H          2.37800       10.80700       -2.19900
H          1.16800       12.02600       -1.69400
C          2.04300       10.96200       -0.03400
H          1.04700       10.55100        0.13300
C          3.06900        9.82100        0.12700
O          2.88100        8.75500       -0.45200
N          4.17600       10.04400        0.84700
H          4.22500       10.90400        1.36700
C          5.39100        9.21300        0.78300
H          5.72300        9.17700       -0.25700
C          6.48200        9.92100        1.61200
H          6.60300       10.92000        1.18900
H          6.13800       10.04300        2.64100
C          7.85700        9.21700        1.61200
H          7.98400        8.65400        0.68800
C          8.97700       10.25800        1.68800
H          8.87800       10.85100        2.59800
H          9.94500        9.75800        1.68800
H          8.93000       10.91400        0.81900
C          8.03700        8.28200        2.81300
H          9.02600        7.82600        2.77600
H          7.93300        8.83700        3.74600
H          7.30000        7.48300        2.78800
C          5.17400        7.75200        1.21400
O          5.75500        6.84200        0.63100
N          4.33000        7.53100        2.21900
H          3.92300        8.34400        2.66600
C          3.94300        6.21300        2.73500
H          4.82700        5.57500        2.68700
C          3.55600        6.34300        4.22500
H          3.55000        5.34100        4.65400
H          4.33100        6.90800        4.74600
C          2.18200        6.98100        4.52200
H          1.40200        6.37900        4.05600
H          2.01200        6.94900        5.59800
C          2.03100        8.43300        4.07100
O          2.97400        9.20700        3.99200
N          0.83600        8.85600        3.73200
H          0.78400        9.81500        3.39600
H          0.03800        8.25200        3.76400
C          2.86000        5.49900        1.89400
O          2.34000        4.46700        2.30100
N          2.46100        6.02800        0.74400
H          2.87700        6.88400        0.39800
H          1.76200        5.54200        0.21000
