64
0 1
H         13.16600       15.60700        9.84400
C         13.22100       15.52200       10.92400
H         13.04800       16.49900       11.37300
H         14.21200       15.17800       11.21500
C         12.17000       14.54800       11.43100
O         11.25900       14.99000       12.12300
N         12.28000       13.24100       11.12300
C         11.50700       12.20600       11.79000
H         10.60500       11.99100       11.21700
H         11.24000       12.49400       12.80800
C         12.41900       10.98300       11.81300
H         11.85000       10.05400       11.87200
H         13.11900       11.06200       12.64600
C         13.17100       11.10800       10.48900
H         12.56300       10.67100        9.69600
H         14.14200       10.61200       10.53200
C         13.32200       12.62600       10.29200
H         14.30000       12.92400       10.67200
C         13.22900       13.02200        8.81100
O         14.18100       13.56300        8.25600
N         12.06600       12.83000        8.18200
H         11.31400       12.38400        8.70100
C         11.84300       13.07300        6.74800
H         12.65300       12.58300        6.20600
C         10.52700       12.40600        6.29500
H         10.48800       12.46400        5.20600
H         10.55100       11.34600        6.55500
C          9.22800       13.03800        6.83800
H          9.24200       14.11200        6.66200
H          8.38800       12.63000        6.27700
C          8.96200       12.76900        8.31700
O          9.52400       11.88400        8.94200
N          8.11600       13.53900        8.95500
H          7.98900       13.34900        9.93200
H          7.68900       14.33100        8.49600
C         11.89600       14.55600        6.33300
O         11.94800       14.84900        5.14300
N         11.89900       15.49200        7.28700
H         11.80000       15.19900        8.24500
C         12.10900       16.92200        7.02000
H         11.53800       17.18900        6.13000
C         11.57700       17.76500        8.19000
H         12.34600       17.79200        8.96400
H         11.44400       18.79000        7.84100
C         10.29400       17.32200        8.83600
C         10.10100       17.21100       10.17000
H         10.85100       17.40500       10.92700
N          8.80300       16.82500       10.42900
H          8.45900       16.66200       11.36500
C          8.07500       16.69000        9.26900
C          6.74300       16.32600        9.01500
H          6.06700       16.12800        9.83400
C          6.30400       16.22600        7.68400
H          5.27900       15.95500        7.46700
C          7.19900       16.49300        6.63300
H          6.85700       16.42400        5.60800
C          8.52900       16.87200        6.90000
H          9.19900       17.08600        6.07900
C          9.00600       16.98300        8.22500
C         13.57500       17.29000        6.71400
O         13.86700       18.43000        6.37500
N         14.52600       16.37100        6.84800
H         15.47300       16.63200        6.63300
H         14.29600       15.43100        7.13700
