55
0 1
H          7.71400        9.93600        5.07300
C          7.36200        9.19300        5.78600
H          6.49600        9.57200        6.32600
H          8.15700        8.96700        6.49500
C          6.98200        7.92100        5.04900
O          7.59300        6.88800        5.30800
N          5.99500        7.96500        4.13400
C          5.21400        9.14600        3.78500
H          5.85800        9.97800        3.49400
H          4.59100        9.43200        4.63300
C          4.32500        8.73600        2.61000
H          4.85200        8.91000        1.67000
H          3.37200        9.26400        2.62100
C          4.14600        7.23500        2.83400
H          3.86500        6.71300        1.91900
H          3.38700        7.07300        3.60100
C          5.51600        6.80500        3.37600
H          5.37600        5.95900        4.05100
C          6.51400        6.37400        2.28100
O          6.26700        6.52500        1.08500
N          7.67000        5.84700        2.69000
H          7.83000        5.79400        3.69100
C          8.70800        5.34500        1.78700
H          8.99700        6.16800        1.13100
C          9.94100        4.91600        2.61500
H          9.98800        5.52300        3.52200
H          9.82200        3.87600        2.92500
C         11.29400        5.08400        1.89900
H         11.47700        6.14600        1.73600
H         12.08700        4.70400        2.54300
C         11.37200        4.35300        0.56400
O         11.35200        3.13900        0.43000
O         11.35500        5.16000       -0.51600
H         11.27800        4.58500       -1.29600
C          8.15600        4.19500        0.91700
O          7.44400        3.31700        1.40700
N          8.47900        4.18800       -0.37700
H          9.07000        4.93200       -0.72300
C          8.16000        3.11700       -1.32800
H          8.01500        2.18200       -0.78400
C          6.86300        3.46200       -2.08700
H          6.96500        4.45800       -2.52000
H          6.73100        2.75700       -2.90900
C          5.58800        3.42800       -1.22400
H          5.68400        4.07700       -0.35600
H          4.76100        3.81100       -1.82200
C          5.22400        2.00800       -0.79600
O          4.60600        1.23900       -1.51800
O          5.67000        1.62900        0.42900
H          6.23900        2.29900        0.85000
C          9.33000        2.87800       -2.30100
O         10.17900        3.74500       -2.50400
N          9.39300        1.70900       -2.92400
H         10.16300        1.54500       -3.55200
H          8.70200        0.99800       -2.74800
