55
0 1
H          4.89400        8.98400        2.79200
C          3.93600        9.08500        3.29700
H          3.85800       10.05900        3.77500
H          3.85300        8.30500        4.05300
C          2.81600        8.91300        2.28800
O          2.10100        7.91600        2.36000
N          2.64700        9.84900        1.33500
C          3.49000       11.01700        1.12200
H          4.54800       10.75300        1.12000
H          3.28600       11.75700        1.89700
C          3.08400       11.57300       -0.24200
H          3.64800       11.06800       -1.02900
H          3.22700       12.65300       -0.29800
C          1.60800       11.18800       -0.33500
H          1.26400       11.14600       -1.37000
H          1.01000       11.90500        0.23100
C          1.55100        9.82100        0.35700
H          0.59800        9.72100        0.87700
C          1.64900        8.67300       -0.66300
O          0.65900        8.34800       -1.30900
N          2.82600        8.06000       -0.81400
H          3.60200        8.37600       -0.25100
C          3.04000        6.81500       -1.55500
H          2.19200        6.15500       -1.36000
C          3.10300        7.07800       -3.07600
H          3.09000        6.12300       -3.60300
H          2.19400        7.60600       -3.36500
C          4.30800        7.91100       -3.56000
H          4.04400        8.37000       -4.51200
H          4.51400        8.71700       -2.85600
C          5.58800        7.10600       -3.79000
O          5.69400        5.88700       -3.74900
O          6.67100        7.84800       -4.09100
H          7.38300        7.21600       -4.19100
C          4.30900        6.12800       -1.03500
O          5.26700        6.80400       -0.66000
N          4.31700        4.79500       -1.01900
H          3.48800        4.30300       -1.32400
C          5.47300        3.96400       -0.67600
H          6.35200        4.36800       -1.18200
C          5.73900        3.98000        0.84500
H          6.45300        3.18700        1.07200
H          6.22300        4.92100        1.11100
C          4.49700        3.78100        1.73700
H          3.74600        3.17700        1.22700
H          4.79600        3.24800        2.63800
C          3.89700        5.11400        2.18200
O          4.46000        5.90900        2.92000
O          2.66900        5.38600        1.69200
H          2.41700        6.26100        2.04300
C          5.25900        2.53000       -1.18800
O          4.13300        2.06500       -1.31800
N          6.33000        1.79800       -1.46500
H          7.25300        2.18500       -1.36500
H          6.18500        0.85900       -1.80200
