56
0 1
H          9.55600       15.24500        3.92800
C         10.31600       14.73000        4.51500
H         11.23700       14.67200        3.93800
H          9.96400       13.73100        4.76400
C         10.56700       15.51200        5.79200
O          9.82100       16.45200        6.05600
N         11.58500       15.14600        6.59400
C         12.38900       13.94100        6.47500
H         13.28400       14.15900        5.89000
H         11.83400       13.11600        6.02800
C         12.77500       13.59000        7.90900
H         13.69200       13.00100        7.94900
H         11.95200       13.06000        8.39100
C         12.95100       14.96500        8.55300
H         13.96800       15.31700        8.37100
H         12.74600       14.93000        9.62300
C         11.93600       15.85600        7.82400
H         11.03800       15.94600        8.43800
C         12.51000       17.25500        7.55400
O         13.44000       17.41800        6.76500
N         11.98600       18.26700        8.24500
H         11.19300       18.05600        8.84000
C         12.26600       19.68800        7.97800
H         12.16700       19.85900        6.90500
C         11.21900       20.56500        8.70300
H         11.10700       20.21900        9.73100
H         11.58300       21.59300        8.73900
C          9.83900       20.59300        8.01500
H          9.14000       21.16200        8.62600
H          9.93800       21.10400        7.05600
C          9.25700       19.20200        7.77900
O          9.18400       18.32800        8.63600
O          8.91500       18.95100        6.50100
H          8.89900       17.98400        6.40400
C         13.69900       20.12300        8.34100
O         14.13800       21.18200        7.90200
N         14.44100       19.32200        9.11300
H         14.02500       18.47000        9.46500
C         15.86800       19.52800        9.39400
H         16.08200       20.59800        9.36900
C         16.17100       19.01600       10.80800
H         17.19100       19.29400       11.07400
H         15.50100       19.50600       11.51600
C         16.01800       17.52300       10.95600
N         14.80600       16.83200       11.03700
C         15.13800       15.53900       11.17600
H         14.42500       14.73300       11.29200
N         16.47300       15.38600       11.15100
H         16.96600       14.50800       11.23400
C         17.04500       16.62900       11.01000
H         18.09900       16.86900       10.94700
C         16.80500       18.88100        8.35500
O         18.02000       18.92100        8.51100
N         16.29100       18.25400        7.30400
H         16.92100       17.84500        6.63600
H         15.28900       18.19700        7.17800
