54
0 1
H          5.08200       -3.14900       -5.06500
C          4.32500       -3.46900       -5.78000
H          3.40200       -3.69800       -5.25100
H          4.67900       -4.34600       -6.31600
C          4.07000       -2.34000       -6.76300
O          4.67400       -1.28300       -6.61400
N          3.20600       -2.54000       -7.77500
C          2.45900       -3.76100       -8.04700
H          1.97500       -4.14200       -7.14700
H          3.13200       -4.51200       -8.46200
C          1.40400       -3.38000       -9.08700
H          0.49900       -3.03600       -8.58200
H          1.17700       -4.21100       -9.75600
C          2.05600       -2.21300       -9.83000
H          1.31300       -1.56800      -10.30200
H          2.75300       -2.60000      -10.57400
C          2.83500       -1.49400       -8.72400
H          3.73300       -1.04200       -9.14800
C          1.98900       -0.39300       -8.06500
O          1.19000       -0.65200       -7.16400
N          2.12800        0.84200       -8.54900
H          2.81300        1.00900       -9.27000
C          1.32400        1.97800       -8.08800
H          1.41600        2.02500       -7.00400
C          1.85600        3.29600       -8.67700
H          1.86100        3.23600       -9.76600
H          1.16800        4.09300       -8.39200
C          3.25500        3.70100       -8.18900
H          3.41200        4.74000       -8.48200
H          3.27800        3.66500       -7.09900
S          4.65000        2.74600       -8.85600
C          5.15100        1.82400       -7.37400
H          5.93500        1.11100       -7.63400
H          5.53100        2.51500       -6.62200
H          4.30100        1.28000       -6.96300
C         -0.16100        1.79300       -8.47300
O         -0.43800        1.41400       -9.61400
N         -1.12500        2.09500       -7.57900
C         -0.91400        2.50400       -6.19500
H         -0.28800        3.39500       -6.13500
H         -0.45600        1.68100       -5.64400
C         -2.29900        2.79600       -5.61800
H         -2.55900        3.84200       -5.79000
H         -2.35400        2.55600       -4.55600
C         -3.20600        1.89200       -6.45200
H         -4.24300        2.23000       -6.44500
H         -3.14500        0.87100       -6.07200
C         -2.56100        1.95600       -7.84300
H         -2.75000        1.01400       -8.35900
C         -3.10100        3.09800       -8.73000
O         -3.87500        3.94500       -8.30200
N         -2.67900        3.16300       -9.98400
H         -3.02000        3.90600      -10.57000
H         -2.00400        2.48500      -10.31400
