64
0 1
H         10.18100       -2.07200        2.99200
C         10.74700       -2.97900        3.20200
H         10.77900       -3.59300        2.30500
H         10.27000       -3.52600        4.01200
C         12.15700       -2.59900        3.61100
O         12.41100       -1.41300        3.79900
N         13.09400       -3.55800        3.74300
C         12.86700       -4.99100        3.61900
H         12.96400       -5.28500        2.57400
H         11.89000       -5.28600        4.00400
C         13.96900       -5.65100        4.44500
H         14.21400       -6.64600        4.07300
H         13.67100       -5.69100        5.49400
C         15.13300       -4.67700        4.27600
H         15.62400       -4.86300        3.31800
H         15.85100       -4.75800        5.09300
C         14.44700       -3.30600        4.26000
H         14.35700       -2.94800        5.28700
C         15.28800       -2.28400        3.47700
O         16.25800       -1.75800        4.01000
N         14.92100       -1.98300        2.22900
H         14.10100       -2.43700        1.85700
C         15.53700       -0.94200        1.39400
H         16.61900       -0.96000        1.53900
C         15.23100       -1.27500       -0.07300
H         15.69600       -0.52600       -0.71600
H         15.69000       -2.23400       -0.31600
C         13.76900       -1.35400       -0.39700
C         12.99200       -0.30700       -0.75300
H         13.35200        0.70900       -0.87400
N         11.68400       -0.72600       -0.89700
H         10.92700       -0.10600       -1.15200
C         11.55300       -2.07600       -0.65000
C         10.46000       -2.95400       -0.67400
H          9.47600       -2.59100       -0.93000
C         10.66800       -4.31300       -0.38200
H          9.83900       -5.00700       -0.41400
C         11.95800       -4.77200       -0.05800
H         12.11500       -5.82100        0.15100
C         13.04800       -3.87800       -0.02400
H         14.03800       -4.24600        0.20200
C         12.87400       -2.50900       -0.32500
C         15.06900        0.49300        1.72100
O         15.52500        1.43500        1.07800
N         14.13200        0.67400        2.66100
H         13.76200       -0.14900        3.12000
C         13.50500        1.97200        2.96200
H         14.21800        2.76800        2.74000
C         12.30000        2.13600        2.01800
H         12.66400        2.08000        0.99400
H         11.60200        1.31200        2.17600
C         11.54300        3.45700        2.19100
H         11.03200        3.44300        3.15400
H         12.25800        4.28100        2.20000
S         10.30500        3.77700        0.90100
C         11.38100        4.26200       -0.47600
H         11.98700        5.11900       -0.18200
H         12.03300        3.43400       -0.75200
H         10.76700        4.53600       -1.33500
C         13.10500        2.15200        4.43900
O         13.03600        3.27200        4.93000
N         12.85600        1.08700        5.18800
H         12.86000        0.16300        4.77900
H         12.61700        1.23200        6.15400
