56
0 1
H          1.21900        3.26500       -4.61900
C          1.56800        3.57300       -3.63600
H          2.56100        3.16500       -3.45500
H          0.89200        3.20600       -2.86500
C          1.63500        5.08700       -3.56900
O          2.73200        5.62300       -3.43700
N          0.49800        5.80500       -3.63900
C         -0.84200        5.27200       -3.82900
H         -1.24600        4.95800       -2.86400
H         -0.85400        4.43800       -4.53100
C         -1.66200        6.43300       -4.38500
H         -2.71800        6.34300       -4.12800
H         -1.53100        6.49200       -5.46700
C         -1.01500        7.64700       -3.72000
H         -1.41500        7.75900       -2.71100
H         -1.17800        8.55900       -4.29700
C          0.47100        7.27300       -3.66300
H          0.96000        7.61200       -4.57700
C          1.16500        7.94100       -2.46600
O          1.72600        9.02500       -2.60100
N          1.18700        7.27800       -1.30500
H          0.72000        6.37900       -1.26700
C          1.89100        7.73400       -0.10100
H          1.56100        8.75500        0.10000
C          1.47500        6.86600        1.10700
H          1.76900        7.40100        2.01200
H          0.38800        6.77200        1.12900
C          2.11400        5.46300        1.17600
H          3.19600        5.56500        1.18500
H          1.83000        4.99900        2.12000
C          1.68100        4.51900        0.05300
O          0.61200        4.61400       -0.54200
O          2.57000        3.54400       -0.25500
H          3.43900        3.68900        0.16300
C          3.42600        7.79400       -0.25100
O          4.08700        8.35900        0.61400
N          4.00700        7.21600       -1.31200
H          3.42300        6.75300       -2.00100
C          5.43700        7.35500       -1.61900
H          5.98800        7.38000       -0.67900
C          5.93700        6.14500       -2.43500
H          5.51800        6.19900       -3.44100
H          7.02200        6.22400       -2.52900
C          5.60500        4.75800       -1.85000
H          4.55100        4.54500       -2.01300
H          6.18000        4.01000       -2.39600
C          5.89900        4.59900       -0.36200
O          5.07000        4.12800        0.40300
N          7.05500        4.99900        0.12200
H          7.74500        5.41500       -0.47700
H          7.18600        4.89800        1.11300
C          5.78100        8.67200       -2.34500
O          6.95200        8.95800       -2.57000
N          4.80700        9.48800       -2.73300
H          3.83800        9.25500       -2.55900
H          5.05800       10.34400       -3.19800
