56
0 1
H          6.63000        8.62200       -1.49600
C          6.45800        7.94100       -0.66500
H          6.36100        6.92500       -1.04500
H          5.54600        8.21600       -0.13700
C          7.63300        8.00000        0.29300
O          8.25800        6.96800        0.51900
N          7.94800        9.17300        0.87300
C          7.26500       10.44100        0.64500
H          6.20100       10.36400        0.86900
H          7.41200       10.75100       -0.39100
C          7.92800       11.45500        1.58000
H          7.41500       11.46000        2.54300
H          7.94400       12.45500        1.14600
C          9.33700       10.88700        1.74700
H          9.83100       11.26000        2.64400
H          9.93400       11.13300        0.86700
C          9.08400        9.37300        1.77900
H          9.96200        8.86400        1.38000
C          8.81500        8.81200        3.19200
O          8.81700        9.53900        4.18600
N          8.54400        7.50700        3.28900
H          8.57500        6.97300        2.42500
C          8.09700        6.82400        4.51500
H          7.45400        7.52000        5.05700
C          7.24400        5.58900        4.15300
H          7.89400        4.82100        3.73300
H          6.80500        5.19100        5.07000
C          6.10100        5.85800        3.15600
H          6.51800        6.05000        2.17000
H          5.48500        4.96300        3.07300
C          5.19500        7.02400        3.54800
O          4.92300        7.36500        4.68800
O          4.65800        7.70800        2.51900
H          4.11400        8.37300        2.94300
C          9.22400        6.46100        5.50700
O          8.97600        5.76400        6.49000
N         10.46000        6.91700        5.28000
H         10.59600        7.49100        4.45800
C         11.59700        6.77100        6.20800
H         11.56600        5.74900        6.58900
C         12.94000        6.90300        5.44200
H         13.73400        6.53000        6.09000
H         12.89300        6.23000        4.58400
C         13.37600        8.29100        4.92500
H         13.81300        8.86900        5.73900
H         14.15300        8.16000        4.17200
C         12.23000        9.07700        4.30900
O         11.81600        8.82900        3.19000
N         11.58800        9.94200        5.05800
H         10.69400       10.26700        4.71100
H         11.84200       10.02300        6.03400
C         11.45600        7.68900        7.44700
O         12.18700        8.65600        7.63900
N         10.47000        7.43500        8.29500
H          9.82600        6.68100        8.09100
H         10.34700        8.03500        9.09300
