71
0 1
H         11.60400        5.70400        6.77300
C         12.67800        5.81300        6.64400
H         13.18100        4.92200        7.01900
H         13.03200        6.68100        7.19200
C         12.99600        5.97600        5.17100
O         13.72900        5.15400        4.63100
N         12.47800        7.01900        4.49600
C         11.71300        8.11600        5.06800
H         12.16000        8.48400        5.99200
H         10.68800        7.78900        5.24900
C         11.72800        9.21200        4.00600
H         12.64800        9.79300        4.08900
H         10.85400        9.85900        4.07800
C         11.73900        8.41000        2.70400
H         12.15500        8.98900        1.87800
H         10.72200        8.09500        2.46500
C         12.58600        7.17600        3.04000
H         12.14800        6.30500        2.55200
C         14.02600        7.31600        2.51600
O         14.26900        7.06900        1.33800
N         14.99300        7.65200        3.37600
H         14.74000        7.79500        4.34100
C         16.42700        7.64500        3.05300
H         16.58700        8.22800        2.14400
C         17.19200        8.31800        4.20000
H         18.26300        8.26000        3.99800
H         16.92700        9.37600        4.21300
C         16.92100        7.75400        5.56300
C         17.53500        6.67700        6.10000
H         18.31400        6.10300        5.60900
N         17.00900        6.42000        7.35200
H         17.32300        5.66100        7.93900
C         16.02400        7.32500        7.68500
C         15.21800        7.49100        8.82100
H         15.31900        6.82400        9.66300
C         14.28700        8.54300        8.85000
H         13.66600        8.69400        9.72300
C         14.16800        9.40600        7.74500
H         13.45800       10.22200        7.77800
C         14.98000        9.22700        6.60700
H         14.89900        9.91300        5.77600
C         15.93400        8.18700        6.55100
C         16.99900        6.24200        2.76900
O         18.12400        6.13900        2.28900
N         16.24900        5.16600        3.03500
H         15.35600        5.30000        3.49600
C         16.57200        3.80700        2.57800
H         17.61600        3.59200        2.80800
C         15.69100        2.82500        3.36700
H         15.87800        2.96900        4.43300
H         14.64600        3.07800        3.18500
C         15.85900        1.36900        3.05400
C         16.76900        0.54400        3.62000
H         17.48600        0.84300        4.37400
N         16.65200       -0.72100        3.07600
H         17.24800       -1.49400        3.33100
C         15.65800       -0.77400        2.12300
C         15.16800       -1.80600        1.30900
H         15.59300       -2.79600        1.36700
C         14.12000       -1.53000        0.41300
H         13.73200       -2.31100       -0.22600
C         13.58100       -0.23200        0.34400
H         12.78000       -0.02100       -0.35100
C         14.08200        0.79600        1.16700
H         13.66800        1.79000        1.10000
C         15.13400        0.55300        2.07900
C         16.41500        3.62800        1.05300
O         17.01200        2.73700        0.46200
N         15.64700        4.47300        0.37300
H         15.19100        5.24400        0.84100
H         15.58200        4.35500       -0.62300
