63
0 1
H          3.97500        5.13700        2.60200
C          4.06600        6.06400        2.04000
H          3.12300        6.27000        1.53400
H          4.85700        5.97400        1.30000
C          4.37700        7.20400        2.99100
O          3.64300        8.18700        2.99300
N          5.46000        7.12100        3.78800
C          6.48000        6.08500        3.74900
H          6.74200        5.80900        2.72900
H          6.13000        5.20900        4.29800
C          7.69000        6.69100        4.45400
H          8.25200        7.31200        3.75500
H          8.33000        5.92400        4.89200
C          7.03800        7.56900        5.52300
H          7.70300        8.37300        5.84400
H          6.75700        6.95100        6.37700
C          5.76800        8.09900        4.84100
H          4.95600        8.11500        5.56900
C          5.96100        9.53600        4.33100
O          5.73600       10.48500        5.07700
N          6.31400        9.71600        3.05500
H          6.51100        8.90000        2.49700
C          6.43700       11.03000        2.40700
H          7.09700       11.64700        3.01800
C          7.09200       10.85400        1.02900
H          6.34200       10.47400        0.33400
H          7.41000       11.83100        0.66300
C          8.26200        9.91500        1.00000
C          9.53900       10.24000        1.30300
H          9.87500       11.23600        1.56900
N         10.33000        9.10900        1.24900
H         11.32400        9.11700        1.43100
C          9.59600        7.99000        0.92000
C          9.92900        6.63700        0.76100
H         10.94600        6.30400        0.90600
C          8.92600        5.72600        0.39000
H          9.16800        4.68100        0.24500
C          7.61000        6.17700        0.18400
H          6.84800        5.47400       -0.12700
C          7.28200        7.53600        0.36500
H          6.27100        7.87300        0.18600
C          8.26700        8.47700        0.73700
C          5.10700       11.79700        2.28900
O          5.11800       12.98400        1.98100
N          3.96800       11.14300        2.54500
H          4.02300       10.15900        2.78100
C          2.64700       11.77800        2.63700
H          2.54400       12.49500        1.82100
C          1.55500       10.70300        2.48400
H          1.66800        9.98000        3.29300
H          0.57500       11.17200        2.58700
C          1.60400        9.96400        1.13100
H          1.23400       10.63400        0.35500
H          2.62800        9.68900        0.88500
C          0.77600        8.68000        1.09900
O          1.06200        7.68200        0.45300
O         -0.33900        8.66300        1.85700
H         -0.71500        7.79300        1.72500
C          2.44100       12.56300        3.95100
O          1.45700       13.27900        4.09500
N          3.32700       12.44700        4.93600
H          4.13700       11.85200        4.83300
H          3.17300       12.97500        5.77800
