56
0 1
H          6.90900        8.42500        1.12000
C          6.42600        8.54700        2.09000
H          5.39100        8.22000        2.01700
H          6.47100        9.59300        2.38400
C          7.15900        7.70000        3.11400
O          8.16800        7.09700        2.76800
N          6.66900        7.59900        4.36500
C          5.53600        8.33300        4.90900
H          4.61200        7.80400        4.67000
H          5.49400        9.35500        4.53300
C          5.75300        8.34300        6.42100
H          4.81100        8.41100        6.96600
H          6.41600        9.16700        6.69200
C          6.46000        7.01100        6.66700
H          5.71800        6.21100        6.70800
H          7.04900        7.03000        7.58500
C          7.34800        6.84800        5.42800
H          8.31400        7.31900        5.62000
C          7.59000        5.36500        5.10300
O          8.58300        4.79500        5.54100
N          6.72300        4.75700        4.28600
H          5.96600        5.31000        3.91900
C          6.86200        3.38300        3.77500
H          7.12300        2.74000        4.61800
C          5.50900        2.88200        3.22400
H          5.66800        1.98200        2.63000
H          4.88900        2.59300        4.07400
C          4.69800        3.89300        2.39400
H          3.82600        3.37700        1.99000
H          4.32400        4.66400        3.06800
S          5.54500        4.72800        1.02300
C          5.81500        3.33400       -0.10600
H          6.45800        2.59000        0.36400
H          4.86000        2.87600       -0.36300
H          6.29600        3.69100       -1.01700
C          8.00700        3.18500        2.75700
O          8.24600        2.06000        2.33000
N          8.72600        4.24700        2.38100
H          8.44500        5.15800        2.72500
C          9.91200        4.20800        1.51600
H         10.34400        3.20900        1.58700
C          9.50000        4.41900        0.04500
H         10.36600        4.24700       -0.59500
H          8.75000        3.66800       -0.20800
C          8.93400        5.81900       -0.25600
H          8.14400        6.05400        0.45200
H          9.72000        6.56600       -0.15100
C          8.33000        5.93600       -1.65100
O          8.21900        5.03600       -2.47100
O          7.86300        7.16000       -1.96500
H          7.53200        7.06700       -2.85900
C         11.01800        5.17300        1.99500
O         11.88900        5.57100        1.22900
N         11.00900        5.58200        3.25900
H         11.72500        6.22100        3.55800
H         10.29900        5.25000        3.89600
