57
0 1
H          4.87200        6.77100       -3.13400
C          3.95400        6.32800       -2.75300
H          3.98800        5.25100       -2.90600
H          3.09300        6.74400       -3.27500
C          3.83000        6.61800       -1.26800
O          3.81400        5.66800       -0.48900
N          3.72600        7.89500       -0.85100
C          3.75400        9.07600       -1.70200
H          2.74700        9.28000       -2.07000
H          4.44400        8.96400       -2.53900
C          4.22000       10.21700       -0.80000
H          3.84500       11.18200       -1.14100
H          5.31000       10.22100       -0.74500
C          3.63600        9.82300        0.55400
H          2.58700       10.12300        0.59400
H          4.19000       10.27300        1.37900
C          3.75100        8.29500        0.56300
H          4.72000        8.01600        0.97800
C          2.65700        7.67200        1.44400
O          2.85900        7.51600        2.64500
N          1.52100        7.26900        0.86500
H          1.43000        7.37700       -0.14000
C          0.44000        6.57100        1.57600
H          0.19500        7.16500        2.45700
C         -0.82100        6.51700        0.68700
H         -1.68400        6.36000        1.33700
H         -0.95700        7.48500        0.20100
C         -0.84200        5.40800       -0.38400
H         -0.91100        4.43900        0.11100
H         -1.73600        5.52400       -0.99700
C          0.37400        5.42200       -1.30400
O          0.80500        6.45200       -1.79700
N          1.00900        4.29400       -1.52700
H          1.86100        4.36000       -2.05500
H          0.70900        3.44300       -1.08500
C          0.83800        5.17200        2.09300
O          0.08800        4.57600        2.85700
N          1.99600        4.64000        1.68100
H          2.56000        5.16400        1.02100
C          2.56600        3.39300        2.20900
H          1.75900        2.66400        2.30000
C          3.59900        2.86000        1.19800
H          3.28900        3.11100        0.18400
H          4.55900        3.34400        1.38200
C          3.77700        1.33800        1.27500
H          4.69600        1.07000        0.75300
H          3.89500        1.04000        2.31600
S          2.41500        0.38100        0.54700
C          2.76700        0.58300       -1.22100
H          2.71900        1.63600       -1.49400
H          3.76200        0.19500       -1.44000
H          2.03000        0.02700       -1.80100
C          3.19000        3.55900        3.61200
O          3.57100        2.58500        4.24800
N          3.33600        4.77800        4.12400
H          3.03700        5.59200        3.60500
H          3.73500        4.86300        5.04300
