57
0 1
H         12.38200        1.55500        0.07100
C         11.85800        0.81900        0.67600
H         10.93100        1.24800        1.04900
H         12.48100        0.53700        1.52400
C         11.57200       -0.41100       -0.16400
O         12.02900       -1.49300        0.19600
N         10.80200       -0.29000       -1.26300
C         10.66600       -1.33800       -2.26800
H         10.50000       -2.31300       -1.80800
H         11.56900       -1.36500       -2.87900
C          9.46700       -0.94600       -3.13300
H          8.55800       -1.39200       -2.72700
H          9.60700       -1.24100       -4.17300
C          9.41200        0.57500       -2.97600
H          8.41600        0.96900       -3.18000
H         10.14400        1.03600       -3.64100
C          9.83900        0.78900       -1.52000
H         10.30900        1.76800       -1.41700
C          8.62100        0.72200       -0.57400
O          7.84500        1.66700       -0.49000
N          8.46200       -0.39900        0.13700
H          9.14800       -1.12100       -0.00400
C          7.52800       -0.58300        1.24900
H          6.54000       -0.26200        0.91600
C          7.44000       -2.08800        1.58700
H          6.84400       -2.21700        2.49200
H          6.89700       -2.57400        0.77500
C          8.78300       -2.83700        1.75000
H          8.56900       -3.89700        1.88600
H          9.38000       -2.74800        0.84300
C          9.59900       -2.38100        2.95300
O          9.09400       -2.26600        4.05500
N         10.87700       -2.11200        2.80300
H         11.32500       -2.13100        1.89300
H         11.35000       -1.76800        3.61800
C          7.89000        0.29700        2.46400
O          9.03600        0.70800        2.63400
N          6.90000        0.59800        3.30600
H          5.98600        0.19000        3.14600
C          6.97700        1.58300        4.39700
H          7.59900        2.41500        4.06600
C          5.55600        2.11400        4.64300
H          5.58200        2.89300        5.40500
H          5.18100        2.56500        3.72400
C          4.59500        1.03100        5.07000
N          4.03200        0.07400        4.22200
C          3.31000       -0.73300        5.01300
H          2.74200       -1.58500        4.66300
N          3.40400       -0.34400        6.29700
H          2.96800       -0.80400        7.08300
C          4.21900        0.76500        6.35300
H          4.54100        1.30600        7.23300
C          7.61200        1.07500        5.70800
O          7.53500        1.74800        6.73100
N          8.21900       -0.10100        5.74300
H          8.61900       -0.40800        6.61200
H          8.31800       -0.66100        4.90700
