54
0 1
H          4.38100        0.20000        7.49300
C          4.41600        0.46800        6.43800
H          3.40800        0.47400        6.03100
H          5.03700       -0.24800        5.90200
C          5.02000        1.85400        6.30300
O          5.26500        2.48600        7.32800
N          5.25900        2.34300        5.07200
C          4.88100        1.73100        3.80800
H          3.89900        1.26200        3.86200
H          5.63700        0.99900        3.52100
C          4.85500        2.87700        2.79800
H          3.89000        3.38400        2.84400
H          5.06100        2.52900        1.78500
C          5.95200        3.80800        3.31500
H          5.79200        4.83800        2.99500
H          6.92300        3.45100        2.96900
C          5.86900        3.65100        4.83800
H          6.88000        3.63100        5.23600
C          5.05700        4.78200        5.50200
O          3.82700        4.75500        5.44300
N          5.70700        5.79500        6.11100
C          4.99800        6.85200        6.82000
H          4.35500        6.44000        7.59800
H          4.40200        7.42600        6.10900
C          6.07300        7.74600        7.43300
H          6.36500        7.35700        8.41000
H          5.74300        8.78200        7.51100
C          7.22700        7.58700        6.44600
H          8.18500        7.85000        6.89800
H          7.04300        8.21000        5.56900
C          7.14200        6.10700        6.04700
H          7.49000        6.00700        5.01900
C          8.07200        5.24700        6.92800
O          9.28300        5.44500        6.87100
N          7.56000        4.30500        7.72900
H          6.56800        4.10000        7.68600
C          8.40700        3.35100        8.46100
H          9.27900        3.88700        8.84100
C          7.65000        2.80700        9.68200
H          7.35500        3.64200       10.31900
H          6.74600        2.29800        9.35200
C          8.46000        1.84400       10.51200
N          9.71400        2.11300       11.06200
C         10.07600        1.00100       11.71600
H         11.00300        0.88800       12.26400
N          9.12900        0.05400       11.59300
H          9.16800       -0.86900       12.00100
C          8.10100        0.56800       10.83500
H          7.18300        0.07400       10.54600
C          8.94500        2.23400        7.54700
O          8.36000        1.88900        6.52400
N         10.07300        1.63700        7.90400
H         10.44000        0.91300        7.31100
H         10.51000        1.88800        8.77800
