57
0 1
H          5.70900        2.42500        8.34200
C          5.56300        3.23300        7.62700
H          6.48800        3.41700        7.08500
H          5.27100        4.13500        8.16100
C          4.46800        2.85100        6.64700
O          3.46800        3.56300        6.57800
N          4.63400        1.76600        5.86800
C          5.78000        0.86700        5.90200
H          5.94000        0.46500        6.90300
H          6.67000        1.39900        5.56100
C          5.45200       -0.26300        4.92600
H          4.91800       -1.05800        5.44900
H          6.34900       -0.65500        4.44500
C          4.51900        0.41600        3.92400
H          3.88700       -0.30600        3.40400
H          5.11000        0.98500        3.20500
C          3.70900        1.38200        4.79700
H          3.44100        2.25900        4.20600
C          2.40700        0.71900        5.28100
O          1.43400        0.68000        4.53200
N          2.35600        0.21200        6.51800
H          3.16500        0.36600        7.11200
C          1.25900       -0.59300        7.09400
H          1.01200       -1.35600        6.35400
C          1.77800       -1.33400        8.34900
H          1.11200       -2.17600        8.54400
H          2.76200       -1.75000        8.12900
C          1.86900       -0.50600        9.65000
H          0.86400       -0.28300       10.00600
H          2.35400       -1.10800       10.41700
C          2.64800        0.79600        9.50200
O          3.72000        0.84400        8.91800
N          2.12800        1.90200        9.98100
H          2.61900        2.76400        9.81000
H          1.23400        1.90200       10.44300
C         -0.06100        0.17300        7.35500
O         -0.90100       -0.27400        8.13000
N         -0.22900        1.34000        6.73400
H          0.48700        1.59600        6.07000
C         -1.34200        2.27800        6.92000
H         -2.22300        1.71500        7.23100
C         -0.97800        3.25300        8.05700
H         -1.85100        3.85300        8.32000
H         -0.70900        2.66000        8.93300
C          0.18900        4.19600        7.70200
H          0.87900        3.68500        7.03400
H         -0.19500        5.06900        7.17300
C          0.98100        4.66300        8.92000
O          0.48700        4.80400       10.02500
N          2.26800        4.88800        8.78300
H          2.73900        5.29900        9.56800
H          2.71700        4.69600        7.89100
C         -1.72500        3.01000        5.61500
O         -2.51500        3.94500        5.62800
N         -1.17000        2.62800        4.46900
H         -1.43200        3.12000        3.63100
H         -0.52400        1.85300        4.44000
