54
0 1
H          5.03700        6.98500       -0.22500
C          6.12400        6.93400       -0.19900
H          6.53400        7.85800        0.20100
H          6.50100        6.77700       -1.20900
C          6.55100        5.76600        0.67200
O          7.18600        4.85000        0.15900
N          6.23500        5.77700        1.97900
C          5.51200        6.82600        2.68400
H          4.60900        7.11900        2.14800
H          6.16700        7.68800        2.81800
C          5.14300        6.24100        4.04600
H          4.16800        5.75400        3.98500
H          5.13800        7.00300        4.82500
C          6.23200        5.19400        4.28400
H          5.88500        4.40200        4.95000
H          7.11500        5.68000        4.70000
C          6.55500        4.67000        2.87800
H          7.62100        4.45600        2.82000
C          5.72700        3.41500        2.52800
O          4.49900        3.46800        2.62000
N          6.34500        2.26600        2.18500
C          7.77900        2.03500        2.08300
H          8.31000        2.40900        2.95900
H          8.15900        2.51100        1.17700
C          7.95100        0.52000        1.98500
H          8.01500        0.09300        2.98700
H          8.82800        0.25100        1.39600
C          6.65400        0.07200        1.31300
H          6.42300       -0.97200        1.53100
H          6.73400        0.22300        0.23500
C          5.60600        1.03200        1.88300
H          4.84500        1.22800        1.12700
C          4.90700        0.44400        3.12100
O          3.93500       -0.29400        2.99800
N          5.38300        0.79100        4.31900
H          6.21700        1.36400        4.34500
C          4.76900        0.49600        5.61600
H          4.26600       -0.47100        5.55900
C          5.89800        0.40100        6.65400
H          5.47500        0.15300        7.62800
H          6.56800       -0.41200        6.37100
C          6.71500        1.66600        6.77300
N          7.65500        2.11800        5.84000
C          8.15500        3.25500        6.34600
H          8.92500        3.84900        5.87200
N          7.56000        3.55200        7.51500
H          7.76600        4.35500        8.09200
C          6.64600        2.56200        7.79800
H          5.99400        2.49000        8.65900
C          3.69700        1.52000        6.04200
O          3.24900        1.51000        7.18300
N          3.28400        2.44100        5.17900
H          2.57600        3.09000        5.47500
H          3.65100        2.46500        4.23700
