60
0 1
H          6.43600        1.51200       -1.23900
C          6.57500        2.32500       -0.52700
H          6.92000        1.91300        0.41900
H          5.63500        2.85500       -0.39100
C          7.62400        3.27400       -1.07300
O          8.20800        2.98300       -2.11200
N          7.90200        4.40600       -0.39700
C          7.35400        4.80500        0.89200
H          7.34000        3.97500        1.59900
H          6.34700        5.20000        0.75100
C          8.27800        5.91100        1.40200
H          9.12000        5.47200        1.93800
H          7.74700        6.62000        2.03800
C          8.77500        6.56300        0.11100
H          9.73100        7.06900        0.25500
H          8.02500        7.26900       -0.24900
C          8.87900        5.39100       -0.87200
H          8.60700        5.73200       -1.87100
C         10.30500        4.82100       -0.93600
O         11.08700        5.21100       -1.79700
N         10.62300        3.84800       -0.07800
H          9.92900        3.57500        0.60000
C         11.89400        3.11100       -0.06000
H         12.70500        3.83900       -0.10100
C         12.00900        2.33100        1.26400
H         11.54900        1.35100        1.13800
H         13.06500        2.15700        1.47600
C         11.36200        3.00500        2.46300
C         10.05800        2.63600        2.85200
H          9.53700        1.84800        2.32200
C          9.43100        3.29400        3.92600
H          8.43500        3.01900        4.23800
C         10.10600        4.32500        4.61200
O          9.48900        4.96200        5.64000
H         10.07900        5.56300        6.09800
C         11.41100        4.69700        4.22100
H         11.92800        5.48900        4.74000
C         12.03600        4.03600        3.14500
H         13.03200        4.32500        2.83500
C         12.07100        2.16200       -1.26300
O         13.11500        1.53100       -1.40300
N         11.04300        2.03100       -2.10700
H         10.19100        2.53400       -1.88900
C         10.98600        1.16800       -3.28700
H         11.97000        0.72900       -3.45500
C          9.98600        0.02200       -3.03100
H          8.98900        0.42600       -2.85100
H          9.93600       -0.58200       -3.93800
C         10.38700       -0.92200       -1.88000
H          9.92300       -1.89000       -2.06400
H         11.46700       -1.07500       -1.89200
C          9.96300       -0.48600       -0.47400
O          9.35300        0.53100       -0.16200
O         10.31300       -1.35100        0.49800
H          9.99400       -0.97400        1.31600
C         10.64400        1.95400       -4.57200
O         10.43500        1.36600       -5.62700
N         10.58100        3.28100       -4.52800
H         10.76200        3.77100       -3.66400
H         10.35000        3.77500       -5.37300
