64
0 1
H          6.79200       11.56200       -0.69800
C          5.85300       11.56700       -0.14900
H          5.04700       11.88400       -0.80900
H          5.92200       12.25000        0.69400
C          5.55900       10.16400        0.34900
O          4.58200        9.57300       -0.10000
N          6.37600        9.60400        1.25900
C          7.51000       10.26800        1.89000
H          7.20400       11.18700        2.39000
H          8.27100       10.48200        1.13800
C          8.06400        9.27600        2.91300
H          7.54900        9.40100        3.86700
H          9.14200        9.38300        3.03800
C          7.69200        7.92800        2.29800
H          7.70200        7.12600        3.03500
H          8.38900        7.69600        1.49100
C          6.30200        8.20600        1.70600
H          6.15400        7.56100        0.84000
C          5.14700        7.92100        2.69200
O          5.28000        7.09900        3.59700
N          4.00800        8.60200        2.55600
H          3.92400        9.20300        1.74400
C          2.91100        8.64800        3.53700
H          3.36300        8.65800        4.52700
C          2.14600        9.97300        3.37400
H          1.44200        9.85600        2.54800
H          1.56200       10.15200        4.27800
C          2.97700       11.19500        3.09200
C          2.69700       12.11200        2.13800
H          1.84500       12.06100        1.46900
N          3.64100       13.11800        2.16300
H          3.61000       13.92200        1.55200
C          4.59800       12.89000        3.12700
C          5.74900       13.59400        3.51100
H          6.01500       14.51800        3.01800
C          6.54600       13.08500        4.54900
H          7.43400       13.61700        4.86500
C          6.18300       11.88500        5.18500
H          6.79600       11.49700        5.98800
C          5.02400       11.18700        4.79100
H          4.76100       10.26900        5.29300
C          4.19700       11.67000        3.75100
C          1.98900        7.40900        3.51900
O          0.77000        7.52200        3.63300
N          2.57000        6.21900        3.35000
H          3.58300        6.21400        3.35100
C          1.88900        4.94800        3.05500
H          1.07500        5.16900        2.36400
C          2.86000        3.99200        2.33000
H          3.62300        3.65600        3.03500
H          2.30500        3.11900        1.98500
C          3.56800        4.62700        1.12300
H          4.21100        5.43300        1.47600
H          4.20900        3.87400        0.66500
S          2.46100        5.28700       -0.15400
C          3.64800        6.25900       -1.11900
H          4.43200        5.60700       -1.50300
H          3.13200        6.73500       -1.95300
H          4.08800        7.02900       -0.48800
C          1.22900        4.28900        4.28700
O          1.35000        3.09200        4.51800
N          0.54600        5.05600        5.12500
H          0.42400        6.03600        4.90500
H          0.12100        4.63100        5.93100
