64
0 1
H          9.86100        5.51900        3.26500
C          9.37100        6.20300        2.58000
H          9.66800        5.97100        1.55900
H          9.67600        7.22200        2.81500
C          7.86200        6.09800        2.69900
O          7.20400        5.90900        1.68100
N          7.29000        6.20100        3.91400
C          5.84600        6.27200        4.10000
H          5.34400        5.43000        3.62400
H          5.47800        7.21000        3.68100
C          5.60900        6.25400        5.61100
H          5.49000        5.22400        5.95300
H          4.74400        6.85500        5.89100
C          6.91000        6.83600        6.16400
H          7.07300        6.55000        7.20300
H          6.89000        7.92300        6.07100
C          7.97000        6.26200        5.21700
H          8.82100        6.94200        5.17500
C          8.47200        4.89000        5.71800
O          9.05800        4.80600        6.79200
N          8.21900        3.81600        4.96300
H          7.69900        3.96300        4.11100
C          8.68100        2.44200        5.22800
H          8.64200        2.23900        6.30000
C          7.73200        1.47300        4.49900
H          8.14200        0.46200        4.53800
H          6.77300        1.46400        5.01800
C          7.49700        1.85700        3.05600
N          8.43100        1.74000        2.02800
C          7.91000        2.38600        0.97500
H          8.40400        2.50300        0.01800
N          6.71800        2.91400        1.29500
H          6.18700        3.54600        0.70800
C          6.43800        2.58900        2.60300
H          5.58500        2.91100        3.18500
C         10.13500        2.19000        4.79300
O         10.80700        1.35900        5.39300
N         10.61000        2.90500        3.76500
H          9.95100        3.50500        3.30100
C         11.96300        2.82200        3.18400
H         11.96000        3.47900        2.31600
C         13.00000        3.41000        4.15600
H         13.18700        2.68600        4.95000
H         13.93900        3.55900        3.62200
C         12.59800        4.71400        4.78100
C         12.10300        4.84900        6.03000
H         11.95600        4.03000        6.72600
N         11.74600        6.16300        6.25100
H         11.29300        6.46400        7.10200
C         11.98800        6.94700        5.14500
C         11.76800        8.30500        4.86800
H         11.34300        8.95300        5.61900
C         12.12200        8.80900        3.60400
H         11.97100        9.85500        3.37500
C         12.68200        7.95100        2.63900
H         12.95900        8.34500        1.67100
C         12.89200        6.58800        2.92700
H         13.32600        5.94000        2.18100
C         12.55100        6.04900        4.18800
C         12.35800        1.44100        2.62000
O         13.52600        1.18200        2.35400
N         11.40800        0.54700        2.37800
H         10.44300        0.77500        2.56700
H         11.68000       -0.35500        2.02500
