54
0 1
H          4.24700       17.30100        9.93600
C          5.12400       16.66400        9.83000
H          5.73400       16.73800       10.72900
H          5.71200       16.97500        8.96900
C          4.68600       15.22200        9.64900
O          5.07000       14.38800       10.46300
N          3.89900       14.90400        8.60300
C          3.37700       15.84500        7.61900
H          4.17900       16.41800        7.15200
H          2.66600       16.51600        8.10200
C          2.65300       15.00300        6.56700
H          3.35100       14.71800        5.77900
H          1.79500       15.53000        6.14800
C          2.23000       13.76600        7.35800
H          2.03800       12.90900        6.71100
H          1.33700       13.99800        7.94100
C          3.41500       13.55100        8.30800
H          3.05400       13.08000        9.22300
C          4.53000       12.65600        7.72600
O          4.48900       12.24800        6.56500
N          5.56300       12.38700        8.52400
H          5.54300       12.77300        9.46200
C          6.71400       11.57100        8.12800
H          7.06700       11.95500        7.17200
C          7.84600       11.71400        9.15800
H          7.46800       11.43300       10.14300
H          8.65300       11.02700        8.90200
C          8.40800       13.14000        9.23300
H          7.60200       13.82100        9.50600
H          9.14700       13.17500       10.03400
S          9.18700       13.76200        7.71300
C         10.66300       12.71100        7.62900
H         10.37300       11.66800        7.50400
H         11.27400       13.01500        6.77900
H         11.24300       12.82000        8.54600
C          6.34000       10.08500        7.96100
O          5.59600        9.55000        8.78700
N          6.87400        9.38100        6.94400
C          7.74300        9.88600        5.88900
H          8.56200       10.48200        6.29600
H          7.15300       10.48200        5.19100
C          8.30100        8.65500        5.17700
H          9.22800        8.34000        5.65900
H          8.46800        8.84300        4.11600
C          7.21600        7.60100        5.40300
H          7.61700        6.58800        5.34900
H          6.42200        7.73600        4.66800
C          6.68100        7.94100        6.79800
H          5.61700        7.70500        6.84400
C          7.41600        7.16800        7.90600
O          8.57700        7.42500        8.20500
N          6.76800        6.17900        8.50400
H          7.24400        5.67800        9.23600
H          5.80500        5.99500        8.27800
