57
0 1
H          4.88200        6.82600        2.33800
C          4.79300        7.81100        2.79400
H          4.28200        7.72200        3.75100
H          4.23300        8.46600        2.13000
C          6.18200        8.38100        3.01500
O          7.14800        7.75300        2.58700
N          6.32000        9.54500        3.67900
C          5.23600       10.40400        4.13300
H          4.91500       10.08800        5.12700
H          4.39100       10.39900        3.44400
C          5.83700       11.80600        4.20200
H          5.32300       12.43200        4.93200
H          5.81500       12.26600        3.21300
C          7.28100       11.52300        4.61000
H          7.32700       11.37700        5.69100
H          7.95100       12.33000        4.30800
C          7.61200       10.21300        3.88400
H          8.03800       10.44700        2.90700
C          8.64800        9.40100        4.67700
O          9.84000        9.66500        4.57700
N          8.20900        8.40500        5.45200
H          7.21500        8.21500        5.47100
C          9.06900        7.45300        6.16700
H          9.86700        7.99100        6.68000
C          8.19000        6.72300        7.19700
H          8.82800        6.11600        7.84100
H          7.67300        7.45100        7.82300
C          7.17200        5.82700        6.53100
N          6.07000        6.26800        5.79200
C          5.59500        5.17900        5.16500
H          4.75900        5.18100        4.47900
N          6.34200        4.10200        5.45700
H          6.27400        3.20000        5.00000
C          7.33800        4.49000        6.32200
H          8.16700        3.88900        6.67200
C          9.72900        6.41400        5.24000
O         10.71500        5.79700        5.63400
N          9.15700        6.19100        4.04900
H          8.35500        6.76700        3.82500
C          9.46100        5.12100        3.08700
H          8.69200        5.17200        2.31600
C         10.80800        5.37600        2.38000
H         11.60500        5.39100        3.12400
H         11.01000        4.55400        1.69200
C         10.85500        6.69900        1.59300
H         10.53200        7.53100        2.21800
H         11.88900        6.88800        1.30400
C         10.01800        6.65000        0.31900
O         10.47300        6.24100       -0.73400
N          8.76400        7.04200        0.34600
H          8.32500        7.35800        1.20400
H          8.27000        6.97800       -0.52400
C          9.33000        3.69600        3.66200
O          8.38000        2.98300        3.35300
N         10.23900        3.25600        4.52000
H         10.95100        3.89700        4.84700
H         10.15600        2.32300        4.88300
