53
0 1
H         14.05500        2.37300        4.00500
C         13.78700        3.39900        4.25300
H         12.97800        3.72800        3.60500
H         14.65600        4.04200        4.12700
C         13.32200        3.45000        5.69700
O         13.25200        2.40000        6.33000
N         13.01100        4.64000        6.24200
C         13.04600        5.93500        5.57600
H         12.59200        5.88900        4.58600
H         14.07900        6.27600        5.50400
C         12.24800        6.88300        6.47100
H         11.19300        6.84800        6.19500
H         12.62500        7.90500        6.41400
C         12.43700        6.28400        7.86600
H         11.62200        6.55800        8.53800
H         13.39300        6.61400        8.27500
C         12.49000        4.77600        7.60000
H         13.17700        4.30900        8.30700
C         11.10900        4.11600        7.73100
O         10.21800        4.34600        6.91500
N         10.92500        3.30300        8.77300
H         11.68300        3.16900        9.42600
C          9.68800        2.56800        9.04800
H          8.86500        3.11800        8.60000
C          9.75300        1.16000        8.41800
H         10.65400        0.65900        8.77600
H          8.89800        0.57600        8.76200
C          9.75800        1.13200        6.87800
H         10.61400        1.68500        6.49600
H          9.87300        0.09900        6.54900
C          8.48300        1.68500        6.24300
O          7.44800        1.97000        6.83800
O          8.52400        1.80300        4.90100
H          7.68600        2.18800        4.65000
C          9.43500        2.45900       10.56600
O         10.40600        2.40000       11.32200
N          8.16800        2.37600       11.02400
C          7.85000        2.18700       12.43300
H          8.38300        2.90600       13.05600
H          8.11500        1.17000       12.72700
C          6.34100        2.38900       12.56200
H          6.12600        3.44000       12.76300
H          5.91500        1.75600       13.34100
C          5.82400        2.00900       11.17400
H          4.86400        2.47900       10.95700
H          5.73700        0.92300       11.10500
C          6.93600        2.49200       10.23800
H          6.97200        1.83100        9.37300
C          6.67900        3.93300        9.76100
O          6.78600        4.88900       10.51800
N          6.31900        4.11300        8.49900
H          6.31800        3.33000        7.85700
H          6.16200        5.05300        8.17800
