70
0 1
H          6.26100        7.94300        3.70900
C          5.66000        7.11900        3.33000
H          6.30900        6.29100        3.04700
H          5.08700        7.44200        2.46300
C          4.71100        6.65000        4.40600
O          4.74100        5.48800        4.79400
N          3.86000        7.55200        4.89400
H          3.88000        8.48700        4.52100
C          2.80300        7.21200        5.85100
H          3.18400        6.45100        6.53500
C          2.43700        8.43400        6.70500
H          3.35100        8.85400        7.12600
H          1.98000        9.19900        6.07500
C          1.51500        8.10900        7.84000
C          0.16500        8.16000        7.79300
H         -0.41000        8.46500        6.92400
N         -0.36300        7.70500        8.98400
H         -1.35900        7.55700        9.12600
C          0.63000        7.34200        9.87000
C          0.60800        6.81500       11.16900
H         -0.33300        6.64500       11.67000
C          1.82500        6.51800       11.80700
H          1.82600        6.11800       12.81200
C          3.04200        6.73700       11.13600
H          3.97600        6.51400       11.63500
C          3.05100        7.25600        9.82500
H          3.98900        7.42500        9.31800
C          1.84600        7.57800        9.16100
C          1.58700        6.60200        5.13400
O          0.59900        7.27800        4.84900
N          1.66400        5.31100        4.81200
H          2.53600        4.83200        4.99800
C          0.57300        4.56900        4.16300
H          0.23400        5.14600        3.30100
C          1.11000        3.22400        3.65200
H          1.45000        2.63100        4.50200
H          0.29300        2.67700        3.17800
C          2.23900        3.35700        2.64600
C          1.94900        3.68400        1.30700
H          0.92300        3.82000        0.99400
C          2.99400        3.84300        0.37600
H          2.78300        4.09700       -0.65200
C          4.33300        3.67500        0.78400
O          5.34000        3.83800       -0.11400
H          6.19200        3.62900        0.26700
C          4.62500        3.34300        2.12500
H          5.64700        3.22800        2.44800
C          3.57700        3.18300        3.05100
H          3.80700        2.95100        4.08200
C         -0.66000        4.35900        5.06500
O         -1.72600        3.99700        4.57400
N         -0.54200        4.58600        6.37800
H          0.36300        4.89900        6.71300
C         -1.61700        4.41900        7.36700
H         -2.20400        3.55300        7.06000
C         -1.04700        4.10100        8.76800
H         -0.75400        5.02100        9.26800
H         -1.85600        3.66500        9.35600
C          0.15100        3.13400        8.81100
H          0.10100        2.56600        9.74100
H          0.10700        2.42500        7.98400
C          1.47900        3.89000        8.78100
O          1.91100        4.51300        7.81900
O          2.17600        3.86100        9.93200
H          2.87800        4.50700        9.83200
C         -2.58900        5.62300        7.37900
O         -2.84400        6.24200        8.41000
N         -3.10800        6.01700        6.22400
H         -3.72100        6.81500        6.21200
H         -2.87500        5.51100        5.38000
