78
0 1
H          9.82000        7.42500       -2.79900
C          9.56900        6.47500       -2.33000
H         10.48000        5.89800       -2.18300
H          8.88000        5.91800       -2.96200
C          8.90800        6.74700       -1.00200
O          8.23600        7.75800       -0.84500
N          9.10200        5.85800       -0.02800
H          9.71600        5.07800       -0.20500
C          8.45100        5.94300        1.29100
H          7.37100        5.97600        1.14500
C          8.78900        4.68600        2.10200
H          8.29500        4.75200        3.07300
H          8.36800        3.82100        1.58900
C         10.25100        4.43500        2.32200
C         10.98500        4.92600        3.34500
H         10.59300        5.54800        4.14300
N         12.29800        4.51800        3.21300
H         13.02300        4.75200        3.87700
C         12.47700        3.73800        2.09100
C         13.59500        3.09400        1.54100
H         14.55900        3.16600        2.02200
C         13.44100        2.34900        0.35900
H         14.29100        1.84000       -0.07600
C         12.17900        2.26200       -0.25600
H         12.06500        1.68000       -1.16000
C         11.06300        2.91500        0.30500
H         10.09600        2.81700       -0.16600
C         11.18300        3.67000        1.49300
C          8.81800        7.20600        2.09100
O          8.07800        7.59600        2.99000
N          9.92200        7.87600        1.75200
H         10.47200        7.52000        0.98500
C         10.31400        9.17100        2.32200
H         10.28000        9.10100        3.41000
C         11.75800        9.47800        1.90700
H         12.02400       10.47800        2.25300
H         12.41500        8.77700        2.42400
C         12.04800        9.37600        0.43900
C         11.92700       10.38000       -0.45600
H         11.60500       11.38800       -0.21800
N         12.25700        9.92100       -1.71600
H         12.19900       10.49600       -2.54900
C         12.58300        8.58400       -1.70200
C         12.96400        7.68000       -2.70400
H         13.05800        8.01100       -3.72700
C         13.23100        6.34600       -2.35400
H         13.53800        5.63600       -3.11000
C         13.09900        5.93400       -1.01500
H         13.31000        4.90700       -0.75000
C         12.71100        6.84900       -0.01700
H         12.63200        6.52000        1.00800
C         12.45000        8.20100       -0.33300
C          9.37300       10.33000        1.94200
O          9.41300       11.36600        2.59900
N          8.50800       10.17000        0.93300
H          8.54600        9.31800        0.38400
C          7.41400       11.11100        0.64500
H          7.75600       12.11800        0.88400
C          7.07900       11.07700       -0.85500
H          6.65300       10.10100       -1.09300
H          6.31200       11.82500       -1.06000
C          8.25500       11.35300       -1.77800
C          8.95600       12.57200       -1.68400
H          8.64700       13.31400       -0.95900
C         10.06200       12.82100       -2.51800
H         10.60900       13.74600       -2.42600
C         10.46300       11.84600       -3.45700
O         11.57500       12.03900       -4.21100
H         11.81200       12.96700       -4.26500
C          9.75100       10.63500       -3.56800
H         10.06700        9.89400       -4.28600
C          8.64800       10.39100       -2.72900
H          8.10800        9.45700       -2.80400
C          6.15300       10.87600        1.50300
O          5.17300       11.60000        1.37800
N          6.12700        9.87600        2.37900
H          6.92900        9.27400        2.49800
H          5.29600        9.75000        2.93100
