78
0 1
H          5.17800       14.35400       -1.75700
C          6.12300       14.09100       -2.22900
H          6.83100       14.91100       -2.11000
H          5.96800       13.89300       -3.28800
C          6.68700       12.85700       -1.56600
O          7.77900       12.89800       -1.01400
N          5.94400       11.75400       -1.62600
H          5.06300       11.78700       -2.11800
C          6.32200       10.47100       -1.02800
H          7.40900       10.39700       -1.01100
C          5.81800       10.41900        0.42000
H          6.30900       11.20900        0.98900
H          4.74700       10.62800        0.42400
C          6.04900        9.12200        1.13100
C          5.08300        8.27000        1.53900
H          4.01900        8.42500        1.39700
N          5.65500        7.18400        2.16900
H          5.10800        6.40100        2.52400
C          7.02900        7.27700        2.19300
C          8.03700        6.44500        2.70100
H          7.77900        5.53300        3.21800
C          9.38000        6.82300        2.53800
H         10.17200        6.19700        2.92800
C          9.69600        8.02500        1.87800
H         10.73100        8.31700        1.76600
C          8.67500        8.86000        1.38300
H          8.93100        9.79300        0.90200
C          7.31500        8.50700        1.52700
C          5.78200        9.29700       -1.85500
O          4.66600        9.36000       -2.36600
N          6.58000        8.23500       -2.00200
H          7.47700        8.24600       -1.54100
C          6.24600        7.07800       -2.84500
H          5.69300        7.42700       -3.71900
C          7.56000        6.44300       -3.33600
H          8.14800        7.22300       -3.82100
H          8.12700        6.11000       -2.46500
C          7.49400        5.28600       -4.29500
C          6.39400        4.78600       -4.90700
H          5.38300        5.16000       -4.78700
N          6.74500        3.71500       -5.70400
H          6.07800        3.19000       -6.25100
C          8.10100        3.48000       -5.67000
C          8.92500        2.53000       -6.29200
H          8.49900        1.78600       -6.94900
C         10.31000        2.57100       -6.06200
H         10.96300        1.85400       -6.54400
C         10.85000        3.55800       -5.21900
H         11.92000        3.59800       -5.05600
C         10.01000        4.49900       -4.59000
H         10.43600        5.24800       -3.93800
C          8.61200        4.48400       -4.79400
C          5.34500        6.06100       -2.12500
O          4.30900        5.66200       -2.65300
N          5.72000        5.64000       -0.91600
H          6.56500        6.01800       -0.51700
C          5.05400        4.55300       -0.18700
H          4.64000        3.86200       -0.92200
C          6.09600        3.76600        0.62700
H          6.39800        4.37100        1.48200
H          5.62500        2.86200        1.01500
C          7.34000        3.36500       -0.15300
C          7.22400        2.74200       -1.41400
H          6.24900        2.52300       -1.82700
C          8.37600        2.41700       -2.15400
H          8.28600        1.95300       -3.12400
C          9.65400        2.70300       -1.63000
O         10.76700        2.42200       -2.35300
H         10.57800        2.44300       -3.29600
C          9.77300        3.30800       -0.36300
H         10.75700        3.52100        0.02900
C          8.61900        3.64000        0.37100
H          8.72000        4.11100        1.33800
C          3.85500        5.05500        0.63800
O          3.82700        4.96500        1.86200
N          2.87300        5.66100       -0.01600
H          2.94100        5.76600       -1.02000
H          2.08400        6.00800        0.50200
