71
0 1
H          7.74000       16.48200      -13.65600
C          8.62700       16.44000      -14.28500
H          9.50200       16.75200      -13.71700
H          8.49600       17.09800      -15.14300
C          8.80400       15.02400      -14.77500
O          8.43400       14.71800      -15.90300
N          9.36300       14.16300      -13.92600
H          9.66200       14.51400      -13.02800
C          9.59700       12.73500      -14.20800
H          9.32600       12.52100      -15.24300
C         11.09400       12.44100      -14.04600
H         11.28200       11.41100      -14.35500
H         11.65100       13.08400      -14.72900
C         11.64400       12.63200      -12.66300
C         11.72100       11.66900      -11.71800
H         11.39700       10.64300      -11.86000
N         12.27600       12.18900      -10.56500
H         12.45400       11.63600       -9.73900
C         12.58400       13.52500      -10.70800
C         13.16300       14.47200       -9.84900
H         13.47700       14.18600       -8.85600
C         13.34700       15.78800      -10.30500
H         13.81200       16.52600       -9.66400
C         12.94400       16.13900      -11.60600
H         13.09700       17.15000      -11.96000
C         12.36200       15.18000      -12.46000
H         12.08200       15.45700      -13.46600
C         12.17100       13.84600      -12.03700
C          8.75300       11.78900      -13.33300
O          8.82600       10.56900      -13.47000
N          7.94700       12.34300      -12.42800
H          7.87800       13.35000      -12.42700
C          7.18400       11.63200      -11.39000
H          7.87300       10.99300      -10.83700
C          6.60200       12.68000      -10.42400
H          5.66100       13.05200      -10.83500
H          6.37700       12.20000       -9.47100
C          7.52800       13.86200      -10.18900
C          8.72100       13.68600       -9.46300
H          8.92900       12.73500       -8.99200
C          9.66100       14.73000       -9.38800
H         10.58100       14.59300       -8.84200
C          9.40600       15.95600      -10.03800
O         10.34200       16.93700      -10.03700
H         11.22900       16.56700       -9.99700
C          8.19800       16.14300      -10.73900
H          8.01100       17.09000      -11.22200
C          7.26400       15.09400      -10.82300
H          6.35400       15.22500      -11.39700
C          6.07100       10.73500      -11.95500
O          5.59300        9.83000      -11.27900
N          5.67800       10.98400      -13.20500
H          6.10300       11.78900      -13.64400
C          4.66900       10.24100      -13.96400
H          3.79000       10.12000      -13.33000
C          4.26100       11.04800      -15.21800
H          5.03300       10.94000      -15.98100
H          3.34900       10.59900      -15.61300
C          3.99000       12.55000      -14.98600
H          3.32800       12.90600      -15.77500
H          3.48400       12.69400      -14.03100
C          5.26700       13.38900      -15.02900
O          5.82200       13.77500      -14.01100
N          5.82900       13.62900      -16.19200
H          5.41800       13.30700      -17.04700
H          6.71900       14.12400      -16.17800
C          5.12600        8.82600      -14.38000
O          4.33600        8.05500      -14.91100
N          6.39000        8.46000      -14.19300
H          7.04700        9.09800      -13.76700
H          6.66300        7.53100      -14.46300
