66
0 1
H         10.70300       16.18900        1.72500
C         11.13800       15.39700        2.33100
H         10.65100       15.36500        3.30400
H         12.20500       15.57600        2.46400
C         10.94300       14.06900        1.63900
O         10.28800       13.18200        2.17600
N         11.51800       13.93600        0.44600
H         12.04100       14.72300        0.08700
C         11.51900       12.69900       -0.35500
H         10.86300       11.95900        0.10600
C         10.97300       13.01900       -1.75200
H         10.85000       12.08200       -2.29800
H          9.98200       13.46200       -1.64900
C         11.82700       13.94100       -2.57300
C         12.77200       13.54200       -3.45400
H         13.00800       12.50600       -3.67500
N         13.38700       14.64700       -4.01100
H         14.11300       14.58200       -4.70800
C         12.87100       15.82200       -3.50700
C         13.15100       17.17400       -3.75600
H         13.89800       17.45000       -4.48400
C         12.42700       18.16000       -3.06200
H         12.61500       19.20800       -3.25300
C         11.44000       17.78100       -2.13300
H         10.87300       18.54300       -1.61400
C         11.16600       16.42000       -1.89400
H         10.38700       16.14200       -1.20000
C         11.87300       15.40300       -2.57500
C         12.91400       12.05500       -0.46200
O         13.06000       10.94900       -0.97900
N         13.94800       12.75300        0.00700
H         13.74100       13.65100        0.42800
C         15.37100       12.45400       -0.18700
H         15.56400       12.35400       -1.25600
C         16.17300       13.65300        0.35000
H         16.13500       13.64300        1.44100
H         17.21600       13.54700        0.05000
C         15.64900       14.99300       -0.12000
N         14.48100       15.61200        0.34300
C         14.34900       16.73300       -0.38000
H         13.53300       17.43700       -0.28000
N         15.35400       16.84300       -1.26400
H         15.44500       17.58400       -1.94500
C         16.18300       15.75200       -1.12000
H         17.07000       15.52100       -1.69300
C         15.82600       11.14400        0.47200
O         16.81300       10.55300        0.04900
N         15.08100       10.67700        1.47500
H         14.32000       11.26900        1.78300
C         15.22800        9.37300        2.12600
H         16.28900        9.22400        2.33100
C         14.48600        9.39800        3.48100
H         14.78000        8.50000        4.02500
H         14.83400       10.25000        4.06800
C         12.94000        9.41400        3.42700
H         12.58000        8.65700        2.73100
H         12.56600        9.14300        4.41400
C         12.31100       10.76200        3.06500
O         12.92400       11.80100        2.85500
O         10.96700       10.73900        2.96700
H         10.68100       11.64500        2.74000
C         14.78000        8.17500        1.25700
O         14.91800        7.03200        1.67200
N         14.20700        8.38600        0.07700
H         14.06000        9.32700       -0.26500
H         13.92800        7.58800       -0.46700
