66
0 1
H          6.74900       16.73000       -2.86800
C          7.36600       17.55100       -2.50800
H          7.77600       18.10500       -3.35000
H          8.18000       17.15600       -1.90100
C          6.53100       18.48100       -1.66000
O          6.87600       18.75000       -0.51700
N          5.41700       18.95900       -2.21400
H          5.18000       18.65000       -3.14200
C          4.54100       19.96500       -1.58800
H          5.11000       20.88600       -1.44800
C          3.37300       20.25800       -2.54400
H          2.75700       21.04400       -2.10400
H          3.77600       20.65200       -3.47800
C          2.48400       19.08800       -2.85600
C          2.55800       18.31800       -3.96700
H          3.24900       18.47400       -4.78600
N          1.62800       17.29900       -3.89000
H          1.50000       16.60200       -4.60900
C          0.90100       17.36100       -2.72100
C         -0.12200       16.56200       -2.18800
H         -0.47600       15.69600       -2.72600
C         -0.68100       16.90800       -0.94700
H         -1.47200       16.30600       -0.51900
C         -0.22000       18.04800       -0.26400
H         -0.65900       18.31700        0.68800
C          0.80600       18.84400       -0.81100
H          1.14600       19.71800       -0.27400
C          1.40500       18.51400       -2.04800
C          4.01400       19.56100       -0.20000
O          3.77700       20.42500        0.64000
N          3.87700       18.25900        0.06900
H          4.09600       17.60000       -0.66300
C          3.44000       17.71600        1.36100
H          2.53000       18.24300        1.65200
C          3.07900       16.22700        1.20000
H          2.61500       15.89300        2.12900
H          2.33900       16.11600        0.40500
C          4.27200       15.30400        0.91000
H          5.06800       15.51300        1.62600
H          3.94800       14.27600        1.07700
S          4.95000       15.39700       -0.77300
C          6.45500       14.41700       -0.53600
H          7.09000       14.89600        0.21000
H          6.19200       13.41400       -0.19900
H          6.99800       14.34900       -1.47900
C          4.45200       17.93600        2.50100
O          4.11400       17.71000        3.65800
N          5.67600       18.38700        2.20100
H          5.91500       18.52400        1.22400
C          6.65200       18.83600        3.20100
H          6.65000       18.12100        4.02500
C          8.04600       18.81100        2.54600
H          8.19100       17.82200        2.10700
H          8.08400       19.54800        1.74200
C          9.20300       19.09100        3.52100
H          9.22500       20.15000        3.77700
H          9.05000       18.51200        4.43200
C         10.55700       18.70300        2.93700
O         11.44600       19.48200        2.63200
O         10.74800       17.38500        2.72700
H         11.63300       17.32900        2.36700
C          6.30900       20.21800        3.80200
O          6.87900       20.61700        4.81100
N          5.38800       20.97900        3.22000
H          5.16900       21.86700        3.63900
H          4.90100       20.65800        2.39400
