67
0 1
H          6.41300       -4.63300       -3.05500
C          7.17400       -3.92300       -2.73500
H          8.13600       -4.20000       -3.16300
H          7.23700       -3.92000       -1.64800
C          6.79100       -2.54400       -3.21600
O          5.76100       -2.37900       -3.85800
N          7.62600       -1.55300       -2.91300
H          8.47300       -1.76800       -2.40900
C          7.42100       -0.15200       -3.29100
H          6.87200       -0.12300       -4.23200
C          6.56800        0.54600       -2.21900
H          5.59600        0.05300       -2.16900
H          7.05500        0.41400       -1.25000
C          6.33300        2.01100       -2.43300
C          6.68400        2.99600       -1.57600
H          7.17300        2.83800       -0.62000
N          6.32700        4.22200       -2.10500
H          6.49700        5.11400       -1.63900
C          5.72000        4.08600       -3.33200
C          5.20000        5.01200       -4.24700
H          5.23000        6.06800       -4.02400
C          4.63400        4.54200       -5.44500
H          4.22000        5.23900       -6.16100
C          4.59500        3.16100       -5.70700
H          4.14900        2.80400       -6.62600
C          5.11500        2.24000       -4.77700
H          5.05400        1.18000       -4.98300
C          5.69400        2.67900       -3.56600
C          8.75900        0.56500       -3.51900
O          9.78400        0.16600       -2.97200
N          8.75800        1.63800       -4.31700
H          7.87300        1.94200       -4.69600
C          9.96200        2.40500       -4.68000
H         10.75300        1.68300       -4.88600
C          9.70500        3.17200       -5.99000
H         10.65600        3.55600       -6.36300
H          9.31400        2.47900       -6.73600
C          8.73200        4.34900       -5.84900
H          7.78200        3.99100       -5.45300
H          9.15300        5.06900       -5.14800
S          8.42100        5.21000       -7.41200
C          7.50800        6.64800       -6.79600
H          8.12900        7.20300       -6.09400
H          7.24200        7.29300       -7.63400
H          6.59900        6.31700       -6.29600
C         10.51500        3.31500       -3.55800
O         11.37200        4.15800       -3.81400
N         10.02600        3.17900       -2.32100
H          9.36800        2.42900       -2.15800
C         10.47500        3.92800       -1.14100
H         11.50000        4.26500       -1.30100
C          9.58400        5.16000       -0.88200
H          8.59300        4.80200       -0.61100
H          9.97800        5.70200       -0.02200
C          9.46000        6.14600       -2.05800
H         10.41200        6.66000       -2.19700
H          9.22200        5.61200       -2.97300
C          8.33800        7.16000       -1.85800
O          7.25900        6.85100       -1.38000
N          8.52400        8.40000       -2.25000
H          9.39300        8.68400       -2.66500
H          7.75500        9.02900       -2.10200
C         10.45100        3.01500        0.09400
O          9.53800        2.21600        0.26900
N         11.42100        3.14500        0.98900
H         12.16800        3.80300        0.84200
H         11.39700        2.54800        1.80000
