64
0 1
H         -0.05800        1.17400       -2.77000
C         -0.45900        2.10700       -2.38100
H         -1.54000        2.02400       -2.27200
H         -0.22400        2.92600       -3.05800
C          0.14800        2.39000       -1.02700
O         -0.56700        2.49000       -0.03900
N          1.47300        2.51600       -0.98200
H          1.98600        2.45700       -1.84500
C          2.21100        2.89400        0.22800
H          1.87300        2.27400        1.05400
C          3.69700        2.58800        0.02000
H          3.82400        1.50900       -0.08000
H          4.02800        3.04900       -0.91300
C          4.58700        3.06800        1.12200
C          5.38400        4.15600        1.05300
H          5.47400        4.80500        0.18800
N          6.04200        4.32700        2.25200
H          6.65200        5.12400        2.42900
C          5.68700        3.36300        3.17000
C          6.05200        3.12600        4.50300
H          6.77300        3.76400        4.99100
C          5.46900        2.04700        5.18900
H          5.74200        1.84700        6.21700
C          4.53400        1.22400        4.53700
H          4.09100        0.39200        5.06900
C          4.17600        1.46800        3.19600
H          3.46300        0.82400        2.70500
C          4.74500        2.54300        2.47700
C          1.99600        4.38700        0.56800
O          2.40000        5.23200       -0.23300
N          1.40000        4.75300        1.72600
C          0.74300        3.88300        2.69300
H          1.42600        3.67300        3.51800
H          0.38400        2.95300        2.25700
C         -0.45500        4.68200        3.19500
H         -0.77300        4.35800        4.18600
H         -1.27500        4.60500        2.47900
C          0.09100        6.10700        3.20800
H          0.64700        6.26700        4.13300
H         -0.70800        6.84400        3.11600
C          1.03700        6.15000        2.00000
H          0.49000        6.54000        1.13900
C          2.22100        7.08600        2.28300
O          2.16200        8.26700        1.95200
N          3.28700        6.58800        2.92100
H          3.30700        5.59800        3.11300
C          4.42200        7.40700        3.37200
H          4.04000        8.40500        3.59400
C          4.97600        6.84200        4.69300
H          4.14900        6.68600        5.38800
H          5.44200        5.87700        4.50600
C          6.00200        7.75800        5.37100
H          6.40100        7.23400        6.24000
H          6.83200        7.94600        4.69100
S          5.33500        9.34800        5.93300
C          6.84900       10.09800        6.58700
H          7.58900       10.18400        5.79100
H          6.62300       11.09100        6.97700
H          7.24900        9.47800        7.39000
C          5.46800        7.58900        2.25600
O          6.60400        7.12800        2.34600
N          5.07300        8.20000        1.14800
H          5.72500        8.31000        0.39100
H          4.11500        8.51900        1.07800
