67
0 1
H         -0.68600        7.98700        0.04000
C          0.03700        8.22100       -0.74000
H         -0.32500        7.85300       -1.69800
H          0.99500        7.76000       -0.50700
C          0.21600        9.71800       -0.82500
O          0.00100       10.30800       -1.87500
N          0.61300       10.33000        0.28900
H          0.81100        9.75900        1.09600
C          0.81700       11.78200        0.43100
H          0.01100       12.30000       -0.09200
C          0.73100       12.14100        1.92200
H          0.82200       13.22200        2.03600
H         -0.25700       11.86200        2.29100
C          1.76200       11.47200        2.78100
C          2.98500       11.97500        3.06100
H          3.34700       12.93800        2.71500
N          3.70000       11.06300        3.81400
H          4.64400       11.22600        4.13300
C          2.97500        9.91200        4.04000
C          3.26300        8.71500        4.71000
H          4.22400        8.57000        5.18000
C          2.28300        7.70800        4.76100
H          2.48700        6.77900        5.27600
C          1.03300        7.91400        4.14900
H          0.28000        7.14000        4.20200
C          0.75500        9.12100        3.47700
H         -0.21600        9.27200        3.02800
C          1.72100       10.14900        3.40100
C          2.13300       12.30200       -0.18400
O          2.46900       13.47500       -0.03600
N          2.89700       11.45000       -0.87300
H          2.56100       10.50200       -0.98800
C          4.12700       11.80300       -1.60000
H          4.72300       12.47900       -0.98700
C          4.92200       10.50900       -1.83700
H          5.86800       10.74400       -2.32600
H          5.14800       10.04600       -0.87500
C          4.15900        9.51900       -2.68100
N          3.15300        8.67200       -2.21200
C          2.61800        8.10400       -3.30300
H          1.78900        7.41000       -3.28800
N          3.22400        8.55400       -4.41500
H          2.93300        8.34600       -5.36200
C          4.19600        9.45300       -4.04300
H          4.81400       10.06200       -4.69000
C          3.86800       12.52700       -2.93800
O          4.80500       12.77000       -3.69600
N          2.60800       12.82400       -3.26500
H          1.88600       12.62900       -2.58600
C          2.16500       13.35800       -4.55500
H          2.94600       14.00600       -4.95400
C          1.94900       12.19500       -5.54400
H          1.63500       12.59900       -6.50700
H          2.89500       11.67400       -5.69000
C          0.89800       11.18400       -5.06600
H          1.21400       10.77700       -4.10500
H         -0.05200       11.69800       -4.91800
S          0.62100        9.79100       -6.19100
C         -0.66000        8.94000       -5.23200
H         -1.53000        9.59000       -5.12800
H         -0.95300        8.02300       -5.74300
H         -0.27700        8.70100       -4.23900
C          0.89000       14.20100       -4.39200
O          0.12400       14.03100       -3.45100
N          0.62700       15.11200       -5.31900
H         -0.21000       15.66300       -5.21300
H          1.25600       15.25000       -6.09200
