68
0 1
H          8.51300       -7.15000        9.15000
C          9.43800       -7.15000        8.57600
H          9.43500       -7.97200        7.86400
H         10.28600       -7.25500        9.25200
C          9.56600       -5.84200        7.83200
O         10.51700       -5.09900        8.04200
N          8.60500       -5.55200        6.95500
H          7.83900       -6.19600        6.84600
C          8.57000       -4.29400        6.20400
H          9.56600       -4.10200        5.80300
C          7.61700       -4.42400        5.01000
H          7.95400       -5.24800        4.37800
H          6.61700       -4.66900        5.37200
C          7.53800       -3.19100        4.16400
C          6.51800       -2.30400        4.16600
H          5.62600       -2.39000        4.77500
N          6.81000       -1.26100        3.31000
H          6.23700       -0.42300        3.22900
C          8.04600       -1.41300        2.72500
C          8.78600       -0.62000        1.83700
H          8.37700        0.30900        1.46900
C         10.05900       -1.05600        1.43100
H         10.64300       -0.46100        0.74200
C         10.57200       -2.27200        1.92100
H         11.55100       -2.60400        1.60400
C          9.82100       -3.05700        2.81800
H         10.22800       -3.98600        3.18700
C          8.53800       -2.64700        3.24500
C          8.20100       -3.11000        7.11400
O          7.02700       -2.86500        7.40100
N          9.21300       -2.37100        7.57800
H         10.14900       -2.69400        7.37900
C          9.07300       -1.21000        8.46500
H          8.32600       -1.47100        9.21500
C         10.41600       -0.99200        9.19600
H         10.72600       -1.94200        9.63500
H         11.16800       -0.70800        8.45700
C         10.40100        0.07300       10.31300
H         10.14200        1.04700        9.90500
C          9.41200       -0.26600       11.43100
H          9.61600       -1.26200       11.82400
H          9.50600        0.46300       12.23600
H          8.39100       -0.22300       11.05600
C         11.79500        0.17500       10.93300
H         11.80200        0.95000       11.69900
H         12.08100       -0.77700       11.38000
H         12.51800        0.44300       10.16200
C          8.54200        0.03300        7.71800
O          9.25000        1.01700        7.53100
N          7.28200       -0.03800        7.27600
H          6.83100       -0.93600        7.41800
C          6.51500        0.96900        6.51700
H          5.53100        0.53200        6.34500
C          6.28100        2.24100        7.35600
H          7.22700        2.76100        7.51000
H          5.62300        2.90200        6.78800
C          5.63200        1.96000        8.72300
H          4.73200        1.36300        8.58000
H          6.32200        1.39700        9.35100
C          5.24400        3.23200        9.47200
O          5.37800        4.37700        9.06700
O          4.70200        3.02700       10.68700
H          4.51800        3.90500       11.02300
C          7.04700        1.31400        5.11000
O          6.26000        1.42500        4.17400
N          8.35000        1.43300        4.89800
H          8.98800        1.35100        5.68000
H          8.67900        1.61900        3.96600
