67
0 1
H          7.94400        1.46100        6.20900
C          7.18500        2.20900        5.98800
H          7.14200        2.93500        6.79900
H          6.21400        1.73200        5.87400
C          7.54700        2.92600        4.70900
O          7.73500        4.13500        4.71100
N          7.63600        2.18000        3.61000
H          7.43700        1.19300        3.67800
C          7.97200        2.70600        2.28300
H          7.59800        3.72800        2.21300
C          9.50000        2.74900        2.12000
H          9.90800        3.47000        2.83000
H          9.90200        1.76800        2.38000
C          9.99300        3.10900        0.75100
C         10.83000        2.36400       -0.00500
H         11.26800        1.42200        0.30400
N         11.04300        2.98800       -1.21800
H         11.64900        2.62100       -1.94100
C         10.36800        4.18700       -1.29700
C         10.25800        5.15800       -2.30100
H         10.76700        5.03200       -3.24400
C          9.46900        6.29700       -2.06400
H          9.36600        7.05400       -2.83000
C          8.81400        6.45200       -0.82900
H          8.21800        7.33800       -0.65000
C          8.93400        5.47100        0.17500
H          8.44400        5.62000        1.12600
C          9.70700        4.30800       -0.03700
C          7.29300        1.89400        1.17100
O          7.08200        0.69000        1.31600
N          6.96900        2.54200        0.04500
H          7.22300        3.51700       -0.03100
C          6.17800        1.96000       -1.05600
H          5.25900        1.56500       -0.62100
C          5.77400        3.06500       -2.04700
H          5.04400        2.65200       -2.74400
H          5.29200        3.87700       -1.50200
C          6.95500        3.63400       -2.84500
H          7.67900        4.03800       -2.14100
H          7.43800        2.83300       -3.40500
S          6.51900        4.95700       -4.00600
C          5.63700        4.01100       -5.27700
H          5.35800        4.67700       -6.09400
H          6.28300        3.22200       -5.66300
H          4.73500        3.56900       -4.85500
C          6.83900        0.77600       -1.78800
O          6.18900        0.13500       -2.60700
N          8.10300        0.45400       -1.49200
H          8.58800        1.02600       -0.81900
C          8.75600       -0.77300       -1.96400
H          8.60300       -0.84100       -3.04200
C         10.26800       -0.64600       -1.68800
H         10.62800        0.26500       -2.16700
H         10.41500       -0.54700       -0.61200
C         11.14400       -1.81100       -2.17700
H         12.18600       -1.57800       -1.95700
H         10.89400       -2.72300       -1.63500
C         11.01800       -2.05500       -3.67700
O         11.72000       -1.47000       -4.48100
N         10.10800       -2.89800       -4.10800
H         10.04400       -3.02800       -5.10000
H          9.46600       -3.32700       -3.44800
C          8.16000       -2.05700       -1.34000
O          8.34800       -3.14900       -1.86900
N          7.44800       -1.97100       -0.22100
H          7.04800       -2.81300        0.15600
H          7.28600       -1.07300        0.21500
