63
0 1
H         -3.82200        8.38300        3.98100
C         -2.92600        8.52700        3.37800
H         -3.11300        9.28700        2.62200
H         -2.65200        7.59000        2.89800
C         -1.80000        8.98500        4.27400
O         -2.00600        9.20300        5.46100
N         -0.60800        9.13400        3.70300
H         -0.51700        8.94300        2.71600
C          0.60800        9.57400        4.39600
H          0.32100       10.24500        5.20700
C          1.32100        8.35100        5.00400
H          2.13500        8.68800        5.64300
H          0.61700        7.82800        5.65400
C          1.88300        7.35500        4.03300
C          3.16200        7.33000        3.59000
H          3.93900        8.02500        3.88900
N          3.32000        6.29400        2.69100
H          4.17600        6.11800        2.17100
C          2.15000        5.59500        2.50900
C          1.81500        4.49400        1.70600
H          2.57000        4.01100        1.10100
C          0.49500        4.01300        1.72800
H          0.21700        3.15900        1.12500
C         -0.46100        4.63200        2.55400
H         -1.47200        4.24900        2.58000
C         -0.10800        5.73300        3.35900
H         -0.84500        6.18400        4.00800
C          1.20500        6.25300        3.35100
C          1.52700       10.34500        3.42800
O          1.39800       10.18000        2.21100
N          2.46200       11.18900        3.91300
C          2.66700       11.58300        5.30100
H          2.59300       10.74500        5.99100
H          1.93600       12.34900        5.56800
C          4.07400       12.17400        5.35800
H          4.80200       11.37500        5.50600
H          4.16600       12.92700        6.14100
C          4.24400       12.77900        3.96400
H          5.29500       12.85600        3.68200
H          3.77400       13.76300        3.93900
C          3.46400       11.82100        3.05400
H          2.96900       12.39900        2.27200
C          4.35700       10.75400        2.40100
O          5.15300       10.09700        3.07100
N          4.20400       10.56800        1.08800
H          3.48300       11.10600        0.63200
C          4.79300        9.46800        0.31600
H          4.73200        8.57800        0.94400
C          3.91700        9.22700       -0.93300
H          2.86500        9.31400       -0.65500
H          4.12600       10.00100       -1.67400
C          4.12500        7.84500       -1.57500
H          3.55500        7.80000       -2.50300
H          5.17600        7.68500       -1.81300
C          3.64100        6.72800       -0.65900
O          4.37000        6.03200        0.03700
O          2.30000        6.59200       -0.59200
H          2.10800        5.93800        0.08600
C          6.29300        9.67100       -0.00500
O          6.71300        9.66700       -1.15600
N          7.12700        9.89800        1.00000
H          6.76800        9.91600        1.94600
H          8.10200       10.04000        0.79600
