71
0 1
H         10.32000        7.70400        5.21000
C         10.73200        8.70100        5.07000
H         11.73200        8.63600        4.64700
H         10.77000        9.21600        6.02900
C          9.84100        9.48000        4.13200
O          9.32900       10.53100        4.49900
N          9.65400        8.96200        2.92000
H         10.06600        8.06700        2.70300
C          8.78400        9.55600        1.90200
H          7.98700       10.09800        2.41200
C          9.56800       10.56400        1.05600
H          9.97600       11.33600        1.71100
H         10.40400       10.05300        0.57500
C          8.73300       11.22900        0.01000
C          8.78500       10.97100       -1.31500
H          9.46600       10.27200       -1.78800
N          7.80800       11.69800       -1.96200
H          7.60900       11.58600       -2.95600
C          7.07400       12.46600       -1.08600
C          5.98500       13.33400       -1.25000
H          5.58600       13.52700       -2.23400
C          5.43000       13.95300       -0.11700
H          4.59400       14.63100       -0.22300
C          5.96700       13.69500        1.15800
H          5.54100       14.17800        2.02700
C          7.06300       12.82200        1.31000
H          7.47400       12.63900        2.29400
C          7.64600       12.18800        0.19100
C          8.11300        8.48000        1.03600
O          8.66900        7.39900        0.84400
N          6.90500        8.77100        0.53800
H          6.55900        9.70600        0.68900
C          5.92300        7.74100        0.16200
H          6.46100        6.81600       -0.04800
C          5.00300        7.47200        1.37100
H          4.34900        8.33300        1.51400
H          4.36700        6.61400        1.14900
C          5.74000        7.19200        2.67100
C          5.90700        8.21200        3.63000
H          5.47200        9.18800        3.46800
C          6.66300        7.97100        4.79300
H          6.81400        8.75200        5.52400
C          7.24000        6.70300        5.00900
O          7.97000        6.47200        6.13100
H          8.17500        5.54400        6.23900
C          7.06500        5.67700        4.05500
H          7.51400        4.70900        4.21000
C          6.31900        5.92600        2.88700
H          6.20800        5.15000        2.14200
C          5.11500        8.05000       -1.11600
O          4.04700        7.47500       -1.31600
N          5.58100        8.95900       -1.98400
H          6.46900        9.40500       -1.79700
C          4.85500        9.33700       -3.20900
H          4.28700        8.46700       -3.54300
C          3.84800       10.45100       -2.86900
H          3.20400       10.11100       -2.05700
H          4.39100       11.32600       -2.51600
C          2.96000       10.87500       -4.04700
H          2.22000       11.58600       -3.67600
H          3.57700       11.40200       -4.77600
S          2.08300        9.53800       -4.91200
C          1.09400        8.83800       -3.56000
H          0.44400        8.05700       -3.95500
H          1.75000        8.40300       -2.80500
H          0.48300        9.61900       -3.10800
C          5.78300        9.72600       -4.37100
O          6.81100       10.36600       -4.18200
N          5.42600        9.37700       -5.59900
H          6.02600        9.63400       -6.36500
H          4.55700        8.88700       -5.75200
