76
0 1
H         12.45100        4.51100       -3.66400
C         11.65800        3.88100       -3.26500
H         11.49400        3.03800       -3.93400
H         10.74000        4.45900       -3.17200
C         12.06500        3.36300       -1.90700
O         12.07700        2.16000       -1.68100
N         12.37600        4.27500       -0.98800
H         12.37900        5.24400       -1.27000
C         12.94600        3.96000        0.33400
H         13.90100        3.45700        0.17800
C         13.21900        5.27000        1.09000
H         12.26600        5.70100        1.39900
H         13.78100        5.03900        1.99600
C         13.96500        6.31300        0.31200
C         15.30400        6.49600        0.32600
H         16.00000        5.92200        0.92700
N         15.64500        7.50500       -0.55500
H         16.59500        7.81200       -0.70800
C         14.53700        8.01600       -1.19600
C         14.36700        9.00900       -2.17100
H         15.22000        9.54100       -2.56300
C         13.07000        9.30400       -2.62600
H         12.92000       10.07000       -3.37500
C         11.96700        8.61000       -2.09800
H         10.97000        8.85200       -2.44300
C         12.14900        7.61400       -1.11900
H         11.28900        7.10600       -0.70800
C         13.44000        7.28500       -0.64800
C         12.09300        3.01800        1.20100
O         12.64000        2.32200        2.05100
N         10.77800        2.94800        0.95600
H         10.41600        3.51900        0.21100
C          9.84800        2.02000        1.61500
H          9.92300        2.17400        2.69300
C          8.42400        2.39400        1.15400
H          8.24800        3.44200        1.40400
H          8.38000        2.29700        0.06800
C          7.27400        1.55600        1.74800
H          7.36700        0.51900        1.42900
C          7.23000        1.61700        3.27700
H          8.11900        1.14400        3.69200
H          7.17600        2.65200        3.61300
H          6.36000        1.07100        3.64100
C          5.93900        2.09500        1.23100
H          5.78600        3.11800        1.57300
H          5.93500        2.07600        0.14200
H          5.12500        1.46700        1.59400
C         10.17800        0.53300        1.35600
O          9.77600       -0.32500        2.13700
N         10.93700        0.23500        0.29700
H         11.22500        0.99100       -0.31200
C         11.38700       -1.11600       -0.06500
H         11.01500       -1.81600        0.68300
C         10.76100       -1.52200       -1.40800
H         11.23800       -0.94600       -2.20200
H         10.97400       -2.57600       -1.59300
C          9.27700       -1.30900       -1.50100
C          8.33400       -2.15500       -1.02800
H          8.54600       -3.10200       -0.54700
N          7.08000       -1.60800       -1.21800
H          6.22800       -2.06300       -0.92500
C          7.15200       -0.36700       -1.81200
C          6.18200        0.57100       -2.19400
H          5.13400        0.36700       -2.03300
C          6.59300        1.77800       -2.78700
H          5.85700        2.51000       -3.09100
C          7.96200        2.02600       -2.99400
H          8.27400        2.94900       -3.46400
C          8.92600        1.07300       -2.61000
H          9.97400        1.25900       -2.78800
C          8.54900       -0.14600       -2.00700
C         12.92000       -1.26200       -0.03800
O         13.47700       -2.20400       -0.59100
N         13.64000       -0.34200        0.59500
H         13.18000        0.41900        1.07400
H         14.64000       -0.44600        0.61000
