71
0 1
H         -1.05400       12.97000       -3.88000
C         -0.42500       12.19100       -4.30800
H         -0.49900       12.21600       -5.39300
H         -0.74200       11.21900       -3.93500
C          1.00800       12.43900       -3.89800
O          1.29000       13.40000       -3.19300
N          1.91400       11.57300       -4.34600
H          1.61200       10.81800       -4.94400
C          3.34900       11.65100       -4.05900
H          3.63600       12.70100       -3.97300
C          3.64200       10.96600       -2.71300
H          3.13400       11.51700       -1.92000
H          3.21900        9.96100       -2.73600
C          5.09400       10.84000       -2.35500
C          5.80400       11.73300       -1.63100
H          5.39700       12.63900       -1.19600
N          7.12100       11.32200       -1.55000
H          7.83900       11.84500       -1.07100
C          7.32900       10.13900       -2.22600
C          8.46300        9.34000       -2.43700
H          9.41400        9.62300       -2.01300
C          8.33700        8.16100       -3.19100
H          9.19300        7.51800       -3.34200
C          7.09100        7.80900       -3.74000
H          6.99800        6.90100       -4.32000
C          5.96000        8.62100       -3.52400
H          5.00600        8.33800       -3.94700
C          6.04600        9.80200       -2.75300
C          4.18000       11.03200       -5.19100
O          3.72700       10.10600       -5.86400
N          5.40900       11.52000       -5.37100
H          5.73300       12.24000       -4.73900
C          6.43200       10.91400       -6.22300
H          6.33000        9.82900       -6.16500
C          6.21500       11.34000       -7.68900
H          5.21500       11.04000       -8.00600
H          6.27100       12.42800       -7.75500
C          7.22200       10.72500       -8.64300
C          8.29000       11.49800       -9.14000
H          8.34500       12.55600       -8.91900
C          9.32300       10.88700       -9.87600
H         10.16000       11.47600      -10.22000
C          9.27900        9.49900      -10.13100
O         10.28900        8.89500      -10.80600
H         10.97200        9.51900      -11.05800
C          8.19600        8.73100       -9.65600
H          8.17000        7.67100       -9.86300
C          7.17000        9.34300       -8.91100
H          6.34900        8.74800       -8.52900
C          7.84500       11.26900       -5.71700
O          8.01600       12.19600       -4.92400
N          8.86300       10.55700       -6.21000
H          8.62800        9.85500       -6.89700
C         10.29600       10.81400       -6.00400
H         10.47200       10.94500       -4.93600
C         11.10100        9.59000       -6.48000
H         10.93300        9.45000       -7.54800
H         12.16400        9.77900       -6.32100
C         10.72600        8.30200       -5.73900
H         10.91200        8.45800       -4.67600
H          9.66300        8.10000       -5.87100
S         11.64400        6.82500       -6.25500
C         11.00300        6.59200       -7.93600
H         11.41500        5.67400       -8.35500
H          9.91600        6.51900       -7.91000
H         11.29700        7.43100       -8.56800
C         10.77300       12.10400       -6.71000
O         11.57700       12.07900       -7.63500
N         10.26000       13.26100       -6.31700
H         10.56300       14.10400       -6.77300
H          9.55300       13.26600       -5.59300
