73
0 1
H          2.94600       -1.53300       -6.13100
C          2.36700       -1.19700       -5.27300
H          2.37000       -1.96900       -4.50400
H          1.34200       -0.98800       -5.57400
C          2.98600        0.05900       -4.70800
O          3.39100        0.08500       -3.55200
N          3.06900        1.10800       -5.52400
H          2.67700        1.03400       -6.44900
C          3.53300        2.42000       -5.06900
H          4.39700        2.27100       -4.42100
C          3.99000        3.26300       -6.26100
H          4.83800        2.77200       -6.73900
H          3.17800        3.31800       -6.98800
C          4.39500        4.65500       -5.89000
C          3.73100        5.77800       -6.23900
H          2.83000        5.80700       -6.84100
N          4.36300        6.87700       -5.69800
H          4.00300        7.82200       -5.80400
C          5.45900        6.51400       -4.94100
C          6.38200        7.24000       -4.17400
H          6.31500        8.31800       -4.10800
C          7.40000        6.55200       -3.49300
H          8.12400        7.10300       -2.90900
C          7.48200        5.15000       -3.58600
H          8.27800        4.62500       -3.07600
C          6.54800        4.43000       -4.35700
H          6.63100        3.35600       -4.43200
C          5.51200        5.09300       -5.05300
C          2.45300        3.14200       -4.24800
O          1.33400        3.33800       -4.71700
N          2.79700        3.54700       -3.02300
H          3.73000        3.35100       -2.70200
C          1.84900        4.10300       -2.04900
H          0.94500        3.49100       -2.05300
C          2.48800        4.00900       -0.65400
H          1.72600        4.26000        0.08600
H          2.78900        2.97700       -0.46800
C          3.66700        4.91100       -0.42600
C          4.95800        4.61000       -0.69800
H          5.30900        3.65900       -1.08100
N          5.75300        5.71200       -0.45100
H          6.74500        5.73600       -0.63900
C          5.01600        6.77900        0.01300
C          5.35300        8.09100        0.37700
H          6.37800        8.42700        0.32300
C          4.33800        8.96600        0.80000
H          4.58000        9.98000        1.08600
C          3.00400        8.52000        0.84700
H          2.22500        9.19600        1.17400
C          2.67600        7.20200        0.47100
H          1.64600        6.87500        0.50200
C          3.67300        6.29600        0.04600
C          1.41300        5.54600       -2.35700
O          0.26600        5.90600       -2.09900
N          2.30200        6.38300       -2.90300
H          3.22500        6.03000       -3.10500
C          2.03700        7.80700       -3.14300
H          1.30000        8.13100       -2.40600
C          3.31400        8.62900       -2.88600
H          3.84700        8.20800       -2.03700
H          3.96900        8.57500       -3.74900
C          3.02700       10.10500       -2.58300
H          2.50000       10.56100       -3.42100
H          2.39500       10.17500       -1.69800
C          4.30500       10.90100       -2.32800
O          5.45000       10.50100       -2.49300
O          4.10900       12.16000       -1.89400
H          4.98900       12.52600       -1.79700
C          1.40700        8.03300       -4.53000
O          1.96300        8.71300       -5.38800
N          0.26900        7.40600       -4.79400
H         -0.14700        7.51300       -5.70400
H         -0.14500        6.81400       -4.08600
