81
0 1
H          8.52800        9.20600       -0.21200
C          7.54100        9.41300       -0.62000
H          6.79800        9.29300        0.16500
H          7.32700        8.72900       -1.43800
C          7.51500       10.82700       -1.14200
O          8.54400       11.35800       -1.54300
N          6.33700       11.45000       -1.13300
H          5.55100       10.97200       -0.72100
C          6.09600       12.77300       -1.73500
H          6.38100       12.73400       -2.78700
C          4.59700       13.09100       -1.65400
H          4.41800       14.06000       -2.12400
H          4.05300       12.34800       -2.23800
C          4.02100       13.11400       -0.26900
C          3.98700       14.19300        0.54500
H          4.35600       15.17800        0.28000
N          3.42000       13.84400        1.75500
H          3.27400       14.49900        2.51100
C          3.05700       12.51500        1.78200
C          2.45100       11.70700        2.75500
H          2.17600       12.12000        3.71400
C          2.20100       10.35500        2.46200
H          1.72900        9.71900        3.19800
C          2.56400        9.83100        1.20800
H          2.36200        8.79200        0.98500
C          3.17300       10.65200        0.23700
H          3.42000       10.24000       -0.73000
C          3.43600       12.01500        0.49900
C          6.91100       13.91600       -1.10600
O          7.08300       14.95800       -1.73200
N          7.45000       13.72600        0.10100
H          7.29100       12.83700        0.55000
C          8.38900       14.65100        0.74800
H          7.95400       15.65200        0.76000
C          8.59700       14.19400        2.19700
H          9.39100       14.78800        2.65200
H          7.68200       14.40100        2.75400
C          8.91600       12.73800        2.36200
C         10.14600       12.19100        2.25200
H         11.05500       12.74300        2.04400
N         10.05600       10.82000        2.38800
H         10.84400       10.19700        2.23500
C          8.75900       10.41100        2.59900
C          8.17100        9.15200        2.78600
H          8.78500        8.26400        2.80900
C          6.77700        9.06700        2.94200
H          6.30400        8.10700        3.09500
C          5.99600       10.23500        2.88900
H          4.92300       10.16500        3.00400
C          6.59700       11.49500        2.69800
H          5.98300       12.38300        2.67200
C          7.99800       11.61700        2.56200
C          9.73900       14.77400        0.01600
O         10.44300       15.75800        0.22500
N         10.09900       13.82200       -0.85400
H          9.50700       13.00400       -0.94900
C         11.23600       13.93900       -1.78000
H         11.96400       14.62800       -1.35200
C         11.92500       12.57300       -1.92400
H         11.20800       11.86100       -2.33400
H         12.73900       12.66600       -2.64400
C         12.50900       12.00400       -0.66300
C         13.41800       12.62300        0.12400
H         13.82600       13.61000       -0.06700
N         13.75000       11.80700        1.18800
H         14.42600       12.06300        1.89300
C         13.06800       10.61100        1.13900
C         13.04900        9.48600        1.97800
H         13.67700        9.45000        2.85600
C         12.21600        8.40300        1.65000
H         12.19900        7.52000        2.27700
C         11.41000        8.46400        0.49900
H         10.77200        7.62700        0.24500
C         11.43300        9.60200       -0.33200
H         10.80800        9.64400       -1.21300
C         12.26200       10.70600       -0.03700
C         10.85900       14.54200       -3.14900
O         11.69300       14.62700       -4.04300
N          9.62100       14.97300       -3.36200
H          8.92800       14.93200       -2.62700
H          9.40400       15.37100       -4.25900
