68
0 1
H          9.42100        5.89100        2.89000
C          9.14900        5.98100        1.84100
H          8.95400        4.99500        1.42200
H          9.96300        6.45300        1.29200
C          7.90400        6.82700        1.71000
O          7.93500        7.82000        0.99200
N          6.84100        6.39000        2.39100
H          6.98500        5.51700        2.87100
C          5.49200        6.97400        2.56100
H          4.89000        6.17900        3.00300
C          5.51900        8.09300        3.62000
H          4.50000        8.21600        3.98900
H          6.12000        7.76400        4.46900
C          5.99500        9.44900        3.18900
C          7.26900        9.89600        3.25500
H          8.10700        9.32100        3.62900
N          7.34200       11.17700        2.74200
H          8.20100       11.70100        2.67500
C          6.10900       11.62700        2.32400
C          5.67500       12.82800        1.74400
H          6.37600       13.62600        1.55200
C          4.31600       12.97800        1.42200
H          3.96100       13.89700        0.97600
C          3.41600       11.92700        1.67400
H          2.37200       12.04300        1.41700
C          3.86400       10.72400        2.25500
H          3.16200        9.92300        2.43800
C          5.22200       10.54200        2.59700
C          4.70200        7.36500        1.29300
O          3.57800        6.90000        1.11700
N          5.25700        8.19700        0.41100
H          6.20100        8.50400        0.61900
C          4.56400        8.84600       -0.71300
H          3.68300        9.35400       -0.31700
C          5.53600        9.91000       -1.26800
H          5.80000       10.58400       -0.45200
H          6.44800        9.40300       -1.58600
C          5.03600       10.76500       -2.45000
H          4.86000       10.13000       -3.31700
C          3.76000       11.54200       -2.12300
H          3.91900       12.17200       -1.25000
H          3.48000       12.16300       -2.97300
H          2.94300       10.84900       -1.92700
C          6.11800       11.78000       -2.82500
H          6.31000       12.45000       -1.98700
H          7.03600       11.25600       -3.08800
H          5.79000       12.36300       -3.68600
C          4.06300        7.87200       -1.80100
O          3.24600        8.23600       -2.63900
N          4.54800        6.63000       -1.79700
H          5.14800        6.37100       -1.02500
C          4.27600        5.61500       -2.82300
H          4.10000        6.13400       -3.76700
C          5.50800        4.70100       -3.02100
H          5.53900        3.95700       -2.22300
H          5.37400        4.16200       -3.96000
C          6.86400        5.44000       -3.08000
H          7.61900        4.76800       -3.48700
H          6.78200        6.29900       -3.74700
C          7.34400        5.90200       -1.70300
O          7.00600        5.38700       -0.64500
O          8.12000        7.00500       -1.69500
H          8.22000        7.27300       -0.76900
C          3.00400        4.79000       -2.53700
O          2.67000        3.88400       -3.29100
N          2.28900        5.05000       -1.44700
H          2.57200        5.79000       -0.82100
H          1.46000        4.50600       -1.27700
