69
0 1
H         -1.22200       14.56200       -0.23300
C         -0.55800       15.01800       -0.96400
H          0.01500       15.81900       -0.50200
H         -1.14500       15.41800       -1.79000
C          0.38700       13.96900       -1.50100
O          0.39300       13.69700       -2.69400
N          1.19500       13.38400       -0.61900
H          1.10400       13.63600        0.35100
C          2.06600       12.25600       -0.96600
H          2.49300       12.44700       -1.95200
C          3.22800       12.16000        0.03400
H          3.80700       13.08400       -0.00300
H          2.82000       12.05500        1.04000
C          4.15000       11.01000       -0.23200
C          4.18500        9.85500        0.47000
H          3.57700        9.63700        1.33800
N          5.03400        8.96100       -0.15000
H          5.12100        7.99600        0.13900
C          5.60100        9.49900       -1.28300
C          6.47700        8.98800       -2.25100
H          6.85300        7.97900       -2.16700
C          6.85600        9.80500       -3.32900
H          7.53400        9.42900       -4.08400
C          6.35000       11.11400       -3.42800
H          6.64400       11.73900       -4.26100
C          5.46300       11.61500       -2.45400
H          5.07900       12.62000       -2.54600
C          5.06900       10.82200       -1.35400
C          1.29400       10.92700       -1.06100
O          0.27700       10.73300       -0.39300
N          1.81800        9.97900       -1.84700
H          2.68600       10.19100       -2.31700
C          1.32300        8.60400       -1.95200
H          0.23800        8.65000       -2.06800
C          1.91300        7.97400       -3.23400
H          1.96400        8.75000       -4.00000
H          2.93500        7.64000       -3.04600
C          1.08400        6.81800       -3.83000
H          0.09000        7.19200       -4.07600
C          1.74700        6.33900       -5.12300
H          1.83600        7.17000       -5.82200
H          2.73900        5.94100       -4.90900
H          1.13900        5.56100       -5.58500
C          0.92800        5.60700       -2.90900
H          0.31700        5.87100       -2.04700
H          0.42500        4.80000       -3.44100
H          1.90700        5.26300       -2.57600
C          1.62600        7.81200       -0.65900
O          2.58200        7.03900       -0.57900
N          0.80000        8.01600        0.36900
H          0.11100        8.75000        0.25200
C          0.85200        7.32900        1.67100
H          1.89300        7.28700        1.99100
C          0.06800        8.14000        2.72200
H         -0.96100        8.26500        2.38100
H          0.04900        7.58800        3.66200
C          0.66700        9.52400        3.00500
H          0.74200       10.09000        2.07800
H         -0.02300       10.05300        3.66300
S          2.29100        9.48800        3.81300
C          2.46900       11.24200        4.23000
H          1.67200       11.53800        4.91200
H          3.43300       11.40300        4.71400
H          2.41400       11.84500        3.32500
C          0.36700        5.86400        1.59500
O         -0.55900        5.45100        2.28300
N          0.95600        5.05100        0.72900
H          1.70800        5.40400        0.15100
H          0.63700        4.09900        0.66700
