74
0 1
H          8.93300       -4.97900        2.30500
C          9.32100       -5.05700        1.29100
H          9.35900       -6.10000        0.98400
H         10.32000       -4.62600        1.24500
C          8.41600       -4.29200        0.35300
O          8.85500       -3.34100       -0.27600
N          7.15800       -4.71900        0.26600
H          6.89100       -5.51200        0.82500
C          6.10000       -4.06200       -0.51100
H          6.54400       -3.40700       -1.26200
C          5.29200       -5.14900       -1.24600
H          5.99300       -5.77200       -1.80300
H          4.80900       -5.79400       -0.51100
C          4.24800       -4.67600       -2.21600
C          3.01300       -4.23400       -1.88800
H          2.63200       -4.16700       -0.87600
N          2.33300       -3.84600       -3.02400
H          1.45700       -3.33100       -2.99400
C          3.07500       -4.07900       -4.15900
C          2.82500       -3.87000       -5.52400
H          1.86600       -3.49500       -5.84800
C          3.84000       -4.14900       -6.45600
H          3.66200       -4.00100       -7.51300
C          5.08700       -4.62300       -6.01100
H          5.86500       -4.84000       -6.73000
C          5.32500       -4.83300       -4.63700
H          6.28400       -5.20300       -4.30800
C          4.32600       -4.56900       -3.67300
C          5.23600       -3.19400        0.42200
O          4.19900       -3.63400        0.91700
N          5.68100       -1.97400        0.73800
H          6.59300       -1.68200        0.39700
C          4.96800       -1.09100        1.68500
H          4.70200       -1.67600        2.56700
C          5.88500        0.05800        2.13300
H          5.99900        0.76500        1.31000
H          5.41500        0.58600        2.96300
C          7.26200       -0.39000        2.54900
N          8.30100       -0.66500        1.66500
C          9.32300       -1.10100        2.41100
H         10.28200       -1.40600        2.01200
N          8.97900       -1.10800        3.71200
H          9.58100       -1.39300        4.47100
C          7.67700       -0.66800        3.81900
H          7.08500       -0.57600        4.71800
C          3.65400       -0.53400        1.11800
O          2.72300       -0.24700        1.86400
N          3.56700       -0.40500       -0.20600
H          4.37100       -0.69600       -0.74400
C          2.40100        0.04900       -0.97300
H          1.87700        0.80500       -0.38700
C          2.90100        0.72800       -2.26300
H          2.04700        0.97900       -2.89200
H          3.37800        1.66900       -1.98400
C          3.89600       -0.06000       -3.06500
C          3.60500       -0.80300       -4.15300
H          2.61400       -0.90300       -4.58100
N          4.73100       -1.48700       -4.56600
H          4.70400       -2.21400       -5.27300
C          5.80200       -1.24900       -3.73600
C          7.10100       -1.77200       -3.67700
H          7.42200       -2.51600       -4.38900
C          7.97100       -1.32100       -2.67000
H          8.97200       -1.72500       -2.59100
C          7.53800       -0.34500       -1.75600
H          8.21900        0.00100       -0.98700
C          6.23000        0.17200       -1.82400
H          5.91600        0.92200       -1.11600
C          5.31800       -0.28800       -2.80000
C          1.38300       -1.09200       -1.20000
O          0.90800       -1.35000       -2.30300
N          1.05000       -1.83200       -0.15000
H          1.45100       -1.61500        0.75300
H          0.39100       -2.58100       -0.26900
