63
0 1
H          5.12900       11.44500        1.77400
C          6.00000       11.38900        1.12300
H          6.07400       10.39300        0.69000
H          6.89900       11.61200        1.69500
C          5.85100       12.40000        0.01100
O          4.82000       13.05400       -0.09000
N          6.87000       12.50500       -0.83700
H          7.66100       11.88800       -0.71900
C          6.90900       13.40400       -1.99400
H          5.89800       13.75100       -2.19700
C          7.75100       14.64300       -1.65700
H          7.35400       15.09900       -0.74900
H          8.77500       14.32800       -1.44700
C          7.79100       15.68600       -2.73100
C          6.99300       16.77600       -2.78600
H          6.25000       17.03500       -2.04100
N          7.24600       17.48000       -3.94700
H          6.75900       18.32700       -4.20200
C          8.21700       16.86900       -4.71100
C          8.78600       17.17300       -5.95600
H          8.46600       18.04700       -6.50400
C          9.77500       16.32400       -6.48000
H         10.22500       16.54100       -7.44000
C         10.18200       15.19100       -5.75300
H         10.94500       14.54000       -6.15900
C          9.60500       14.89700       -4.50200
H          9.92700       14.02000       -3.95800
C          8.60300       15.72500       -3.95000
C          7.45100       12.65400       -3.22700
O          8.39400       11.87900       -3.06400
N          6.89200       12.84500       -4.44200
C          7.37600       12.16900       -5.63800
H          7.42900       11.08900       -5.48800
H          8.36100       12.55800       -5.89800
C          6.38100       12.49900       -6.75000
H          5.58100       11.76100       -6.76400
H          6.86800       12.55700       -7.72400
C          5.82200       13.85100       -6.31300
H          4.84300       14.04600       -6.75200
H          6.52400       14.63900       -6.59000
C          5.77100       13.73200       -4.78600
H          5.92900       14.72200       -4.36400
C          4.39700       13.23600       -4.29500
O          3.41000       13.95300       -4.41800
N          4.32900       12.04200       -3.70000
H          5.17400       11.48700       -3.66800
C          3.12000       11.47700       -3.09000
H          2.45600       12.30200       -2.82600
C          2.38000       10.59000       -4.11400
H          1.37600       10.40700       -3.73000
H          2.26800       11.14800       -5.04600
C          3.01100        9.21600       -4.43200
H          3.03500        8.59700       -3.53700
H          2.37100        8.70900       -5.15400
C          4.41200        9.29700       -5.03600
O          4.61800        9.37900       -6.23800
O          5.43200        9.30700       -4.13800
H          5.11600        9.29900       -3.22000
C          3.44300       10.71200       -1.79600
O          4.40000        9.94100       -1.74900
N          2.62800       10.85300       -0.76100
H          1.87200       11.51700       -0.79800
H          2.85200       10.37000        0.09300
