71
0 1
H          9.55500       10.63200       -0.00200
C          9.15600        9.90400        0.70200
H          8.06800        9.95100        0.71200
H          9.53800       10.11500        1.70000
C          9.59300        8.51700        0.29400
O         10.27000        7.83600        1.05400
N          9.21900        8.10400       -0.91800
H          8.67700        8.73500       -1.48400
C          9.53100        6.78100       -1.48400
H          9.40100        6.04400       -0.69100
C          8.50700        6.44100       -2.58100
H          7.52400        6.78800       -2.26000
H          8.75600        6.97800       -3.49800
C          8.37700        4.97800       -2.88100
C          9.18400        4.26800       -3.70000
H         10.02300        4.67500       -4.25400
N          8.83200        2.93600       -3.66600
H          9.38700        2.22300       -4.12100
C          7.75500        2.71600       -2.83700
C          7.04700        1.56200       -2.46800
H          7.31300        0.60400       -2.88900
C          5.99300        1.67200       -1.54500
H          5.43200        0.79300       -1.25500
C          5.66100        2.92800       -1.00600
H          4.84000        3.01000       -0.30500
C          6.37600        4.08100       -1.38700
H          6.10900        5.04300       -0.97400
C          7.44500        4.00600       -2.30900
C         11.00100        6.66700       -1.94900
O         11.30400        6.42100       -3.11400
N         11.94600        6.90900       -1.04000
H         11.62400        7.12600       -0.10300
C         13.39800        6.93800       -1.29000
H         13.55400        7.41800       -2.25700
C         14.06700        7.83400       -0.22900
H         15.12500        7.94600       -0.46800
H         13.61200        8.82500       -0.27400
C         13.93600        7.30500        1.20600
H         12.88200        7.14800        1.43400
H         14.45100        6.34700        1.28400
S         14.61400        8.42300        2.45900
C         14.17200        7.49400        3.95000
H         14.64700        6.51200        3.92400
H         14.51500        8.03700        4.83100
H         13.09000        7.37400        3.99900
C         14.04200        5.53700       -1.40700
O         15.18000        5.33600       -0.98900
N         13.31100        4.54400       -1.92100
H         12.40800        4.77300       -2.32000
C         13.68400        3.12700       -1.86100
H         14.76400        3.04600       -1.99100
C         13.33300        2.56900       -0.46700
H         13.46700        1.48700       -0.46700
H         14.04700        2.97500        0.25000
C         11.93000        2.89700        0.01900
C         11.71800        4.01000        0.85900
H         12.55700        4.61000        1.18100
C         10.41400        4.35600        1.26100
H         10.23800        5.22100        1.88500
C          9.31800        3.57900        0.83200
O          8.05400        3.93500        1.17400
H          7.41300        3.52500        0.58400
C          9.53300        2.44800        0.01900
H          8.69500        1.84900       -0.29900
C         10.83600        2.11200       -0.39300
H         10.99100        1.26400       -1.04300
C         13.03000        2.29500       -2.97900
O         11.96700        2.61200       -3.50000
N         13.65100        1.18500       -3.35700
H         14.52300        0.92000       -2.93000
H         13.23500        0.63600       -4.09100
