67
0 1
H         10.06300        2.51500       -5.86300
C          9.65000        2.94400       -4.95100
H         10.33200        3.68600       -4.54000
H          9.48800        2.15500       -4.21800
C          8.32800        3.60100       -5.26800
O          7.87100        3.56000       -6.40400
N          7.71800        4.22200       -4.26100
H          8.17400        4.20900       -3.36100
C          6.36500        4.80100       -4.32000
H          5.65500        3.99200       -4.49800
C          6.03500        5.44500       -2.96400
H          6.59600        6.37700       -2.87700
H          4.97500        5.70100       -2.94900
C          6.35300        4.61300       -1.75600
C          5.47700        3.83400       -1.08200
H          4.42600        3.73300       -1.32500
N          6.13200        3.18200       -0.05500
H          5.67400        2.54500        0.58200
C          7.47300        3.49900       -0.02400
C          8.53600        3.08900        0.79400
H          8.37000        2.38400        1.59400
C          9.81900        3.61200        0.55900
H         10.65100        3.31100        1.18100
C         10.02000        4.53700       -0.48300
H         11.00800        4.94400       -0.65400
C          8.94500        4.94200       -1.29800
H          9.11600        5.66500       -2.08400
C          7.64400        4.42900       -1.09300
C          6.16900        5.82800       -5.44600
O          5.07900        5.93200       -5.99900
N          7.22700        6.54700       -5.82800
H          8.10000        6.39000       -5.33400
C          7.24200        7.50600       -6.94000
H          6.38400        8.16700       -6.80900
C          8.51300        8.37600       -6.83400
H          8.36900        9.24900       -7.47300
H          8.61000        8.74200       -5.81100
C          9.83800        7.71000       -7.25600
H          9.77500        7.44700       -8.30800
H         10.64100        8.43900       -7.15700
C         10.23200        6.47200       -6.45000
O          9.99700        6.36200       -5.25500
N         10.82300        5.48000       -7.07100
H         10.96100        5.51400       -8.08100
H         11.06300        4.67100       -6.53400
C          7.08000        6.86300       -8.33600
O          6.84800        7.57600       -9.31000
N          7.18800        5.53300       -8.44800
H          7.42600        5.00300       -7.61600
C          6.82500        4.74800       -9.63800
H          6.65800        5.42600      -10.47500
C          7.99200        3.80500      -10.01100
H          8.56100        3.53400       -9.12000
H          7.59200        2.88100      -10.43000
C          8.93500        4.40100      -11.06800
H          9.65500        3.63600      -11.35800
H          8.35900        4.66300      -11.95600
C          9.71600        5.61800      -10.58700
O         10.70800        5.51800       -9.88200
N          9.31600        6.81800      -10.94300
H          9.85500        7.59400      -10.60800
H          8.42400        6.95100      -11.38800
C          5.48800        3.98900       -9.47800
O          5.07800        3.25800      -10.37200
N          4.76600        4.14600       -8.37500
H          5.06600        4.78000       -7.64700
H          3.89500        3.64900       -8.30200
