71
0 1
H         13.50200       14.53600        0.97400
C         13.50300       13.98200        1.91200
H         13.71700       14.66200        2.73500
H         14.25800       13.19900        1.88000
C         12.14400       13.36100        2.12900
O         11.48100       13.65100        3.11900
N         11.72200       12.49700        1.20600
H         12.32600       12.29300        0.42600
C         10.43400       11.79700        1.28100
H          9.68300       12.51400        1.61800
C          9.99800       11.33200       -0.11600
H         10.12100       12.15900       -0.81600
H         10.64300       10.51700       -0.45000
C          8.56700       10.89400       -0.18000
C          8.12400        9.63200        0.01100
H          8.76500        8.78100        0.21700
N          6.74400        9.61000       -0.02100
H          6.19600        8.79400        0.23700
C          6.22400       10.86300       -0.26000
C          4.91300       11.35000       -0.36400
H          4.07400       10.67500       -0.27800
C          4.70900       12.72500       -0.56700
H          3.70500       13.11900       -0.64600
C          5.81400       13.59000       -0.66200
H          5.65200       14.64800       -0.81600
C          7.12700       13.09000       -0.55400
H          7.96600       13.76600       -0.62600
C          7.36700       11.71300       -0.35100
C         10.45500       10.66000        2.32400
O         10.50400        9.47700        1.99600
N         10.43800       11.03400        3.60500
H         10.51900       12.02700        3.79100
C         10.43700       10.11900        4.75500
H         11.35200        9.52600        4.72900
C         10.43100       10.96400        6.04300
H         10.67300       10.30800        6.88100
H         11.21800       11.71800        5.98600
C          9.10200       11.64700        6.32600
C          8.73800       12.81800        5.62900
H          9.44100       13.29600        4.95900
C          7.44800       13.36300        5.78700
H          7.16200       14.24600        5.23800
C          6.52900       12.75300        6.66800
O          5.27000       13.24400        6.79300
H          5.00300       13.73200        6.01100
C          6.90800       11.60900        7.39800
H          6.19700       11.15200        8.06900
C          8.18900       11.05200        7.22000
H          8.46000       10.15000        7.75200
C          9.24500        9.13900        4.74300
O          9.37600        7.99000        5.15400
N          8.08700        9.58300        4.24300
H          8.06100       10.54900        3.95700
C          6.84500        8.81000        4.11300
H          6.79200        8.13100        4.96500
C          5.64100        9.76400        4.23100
H          4.71900        9.18100        4.22000
H          5.70100       10.26300        5.19800
C          5.56600       10.84000        3.13700
H          6.56300       11.23600        2.95100
H          5.21100       10.37700        2.21900
S          4.49400       12.25200        3.52700
C          2.87100       11.44800        3.47000
H          2.81000       10.68200        4.24300
H          2.09300       12.19100        3.64000
H          2.72500       10.99100        2.49100
C          6.83200        7.90700        2.85900
O          5.85200        7.82600        2.12300
N          7.93700        7.23700        2.56400
H          7.94800        6.64400        1.75300
H          8.74100        7.31600        3.17300
