71
0 1
H         10.53700        0.35900       16.49300
C         10.42300        0.20600       15.42200
H          9.96100       -0.76300       15.23700
H         11.39500        0.24500       14.93400
C          9.53800        1.28800       14.85100
O          8.48700        0.99400       14.28900
N          9.95700        2.54400       14.99900
H         10.85200        2.70600       15.42900
C          9.27500        3.68000       14.37500
H          8.20100        3.51900       14.46100
C          9.59300        4.98600       15.11700
H          9.24100        4.90000       16.14600
H         10.67600        5.11500       15.14700
C          8.99800        6.22400       14.50500
C          7.79200        6.75300       14.81100
H          7.10900        6.35000       15.55100
N          7.55700        7.86700       14.02700
H          6.70400        8.41400       14.06000
C          8.59500        8.10000       13.15300
C          8.80400        9.06600       12.15900
H          8.06900        9.83800       11.99000
C          9.97500        9.00500       11.38500
H         10.15300        9.73900       10.61100
C         10.91500        7.98600       11.61900
H         11.81500        7.93900       11.02000
C         10.69700        7.02700       12.62800
H         11.42700        6.24700       12.79200
C          9.53100        7.05800       13.42500
C          9.60900        3.79800       12.88300
O         10.76500        3.68700       12.47900
N          8.58600        4.09700       12.08700
H          7.66100        4.06800       12.50200
C          8.67000        4.50000       10.67500
H          9.62000        5.01100       10.51100
C          8.63400        3.24000        9.79200
H          8.70200        3.53700        8.74500
H          9.51900        2.64000       10.00900
C          7.40000        2.37400        9.98500
C          6.23800        2.61800        9.22700
H          6.23500        3.41200        8.49100
C          5.07900        1.84600        9.43800
H          4.18600        2.05100        8.86900
C          5.08500        0.82500       10.41300
O          3.95300        0.11800       10.66700
H          3.34900        0.13900        9.92300
C          6.25100        0.57000       11.16200
H          6.25000       -0.21000       11.90900
C          7.40600        1.34300       10.94700
H          8.29600        1.15700       11.53600
C          7.55000        5.50100       10.31200
O          7.28500        5.78500        9.14400
N          6.83800        6.00200       11.32500
H          7.15100        5.78000       12.26000
C          5.53100        6.65200       11.22800
H          5.01300        6.23700       10.36300
C          4.70500        6.29100       12.48100
H          5.07300        6.85900       13.33400
H          3.66500        6.57400       12.31600
C          4.77100        4.82400       12.84600
N          5.82800        4.21200       13.52900
C          5.54600        2.89900       13.54400
H          6.18500        2.13300       13.96800
N          4.38600        2.66300       12.90900
H          4.01300        1.74200       12.71200
C          3.88500        3.86400       12.45500
H          2.99400        4.01900       11.86400
C          5.66000        8.16200       10.97900
O          5.22100        8.98600       11.77400
N          6.31500        8.54400        9.89300
H          6.72000        7.84000        9.28900
H          6.43900        9.52700        9.72000
