74
0 1
H         11.23900        0.77100        2.06800
C         10.16100        0.64600        2.14100
H          9.84000        0.77400        3.17300
H          9.88300       -0.34700        1.79200
C          9.48000        1.67900        1.27400
O          8.73800        1.32500        0.36300
N          9.73000        2.95600        1.56100
H         10.38200        3.16500        2.29900
C          9.26900        4.06800        0.72700
H          8.36700        3.76300        0.20500
C          8.88200        5.27800        1.58500
H          8.06200        5.00100        2.25000
H          9.73500        5.57500        2.19700
C          8.46500        6.44900        0.75100
C          7.22500        6.63600        0.24900
H          6.37300        5.99500        0.44200
N          7.23600        7.70400       -0.62100
H          6.45600        7.93200       -1.23600
C          8.49000        8.25700       -0.74000
C          9.00500        9.28700       -1.53900
H          8.35400        9.83300       -2.20500
C         10.37500        9.58900       -1.46200
H         10.79200       10.38200       -2.06800
C         11.20500        8.85200       -0.59800
H         12.26100        9.08000       -0.54600
C         10.67500        7.81200        0.19100
H         11.33000        7.23500        0.82800
C          9.30200        7.48700        0.14300
C         10.30400        4.46600       -0.33300
O         11.47800        4.64600       -0.01100
N          9.84700        4.66000       -1.57500
H          8.88800        4.40100       -1.75900
C         10.60300        5.28000       -2.67800
H         11.07300        6.18400       -2.28500
C         11.73500        4.34500       -3.16900
H         12.29900        4.88100       -3.93300
H         12.43400        4.16100       -2.35500
C         11.30200        2.99700       -3.77300
H         10.54900        3.18100       -4.53900
H         12.16900        2.57000       -4.27700
S         10.65900        1.72600       -2.64000
C         12.09600        1.42400       -1.57800
H         12.33600        2.32200       -1.01000
H         11.86400        0.61700       -0.88200
H         12.95200        1.13900       -2.18900
C          9.67700        5.73800       -3.82900
O         10.04300        5.65700       -5.00000
N          8.43700        6.14500       -3.52500
H          8.19600        6.28700       -2.55300
C          7.33900        6.18300       -4.50700
H          7.76300        6.39200       -5.49100
C          6.68100        4.79000       -4.57700
H          5.67800        4.87900       -4.99800
H          7.26300        4.19000       -5.27800
C          6.59600        4.02000       -3.28800
C          7.40000        2.98200       -2.96200
H          8.17500        2.57500       -3.60100
N          7.10800        2.54200       -1.68700
H          7.63500        1.81300       -1.20200
C          6.07100        3.25700       -1.13300
C          5.42900        3.18900        0.11100
H          5.73600        2.45000        0.83800
C          4.37800        4.07900        0.38800
H          3.86200        4.03200        1.33700
C          3.99400        5.02800       -0.57700
H          3.18300        5.71000       -0.36300
C          4.65700        5.09600       -1.81900
H          4.35100        5.83100       -2.54800
C          5.71500        4.21300       -2.13300
C          6.30200        7.28900       -4.25300
O          6.07400        7.73500       -3.13500
N          5.62300        7.74400       -5.29800
H          4.93900        8.46600       -5.14300
H          5.80100        7.37700       -6.21900
