63
0 1
H          9.85500        0.60000       -7.58300
C          9.82000        0.58900       -6.49600
H         10.71000        1.06900       -6.09300
H          9.76500       -0.43900       -6.14100
C          8.59200        1.33500       -6.03100
O          7.70400        0.74700       -5.42700
N          8.54200        2.63300       -6.31700
H          9.31100        3.04700       -6.82400
C          7.44000        3.53300       -5.96100
H          6.51500        2.95800       -5.96300
C          7.66600        4.08900       -4.54200
H          6.79800        4.68100       -4.25100
H          7.72200        3.25000       -3.84700
C          8.89500        4.93100       -4.36000
C          8.93900        6.28000       -4.44100
H          8.08500        6.92000       -4.63300
N         10.24100        6.71400       -4.28500
H         10.51400        7.68900       -4.35600
C         11.10800        5.66200       -4.09700
C         12.49600        5.58800       -3.91200
H         13.09300        6.48800       -3.90400
C         13.09400        4.33000       -3.72900
H         14.16300        4.25200       -3.57900
C         12.29900        3.16900       -3.72600
H         12.76000        2.20400       -3.57000
C         10.90500        3.25700       -3.91500
H         10.30100        2.36200       -3.89400
C         10.27300        4.50400       -4.11800
C          7.31700        4.67200       -6.99500
O          8.27300        4.91800       -7.73700
N          6.17400        5.38700       -7.07500
C          4.91200        5.10400       -6.40900
H          4.91800        5.54700       -5.41200
H          4.70800        4.03500       -6.35000
C          3.84900        5.78400       -7.26900
H          2.96200        6.04100       -6.68900
H          3.58900        5.14000       -8.11000
C          4.57800        7.02700       -7.77700
H          4.52600        7.80600       -7.01300
H          4.15300        7.38900       -8.71400
C          6.02300        6.54300       -7.96000
H          6.15900        6.21100       -8.99000
C          7.05100        7.63600       -7.63200
O          7.07600        8.15900       -6.51800
N          7.91800        7.96800       -8.59100
H          7.85700        7.50500       -9.48600
C          9.09300        8.81100       -8.36600
H          8.83100        9.57300       -7.63100
C         10.21500        7.91700       -7.79400
H          9.81900        7.37600       -6.93500
H         10.49400        7.17400       -8.54400
C         11.48400        8.65200       -7.33900
H         12.14500        7.93900       -6.84500
H         12.00800        9.05100       -8.20700
C         11.17900        9.79700       -6.37900
O         10.98900       10.95400       -6.72300
O         11.07000        9.46300       -5.07700
H         10.86600       10.28900       -4.63200
C          9.51600        9.53100       -9.65800
O          9.31500        9.02500      -10.75700
N         10.11700       10.70900       -9.55600
H         10.38900       11.18100      -10.40300
H         10.29700       11.11400       -8.64600
