66
0 1
H          8.59500       -1.45800       -7.02200
C          9.10900       -0.70700       -6.42500
H          9.22200        0.20800       -7.00400
H         10.08900       -1.07600       -6.12600
C          8.29200       -0.40700       -5.19100
O          7.82200        0.71100       -5.01700
N          8.13400       -1.40400       -4.32000
H          8.60300       -2.27500       -4.50700
C          7.33300       -1.31400       -3.08700
H          6.30100       -1.08000       -3.35000
C          7.36000       -2.68500       -2.39100
H          6.73500       -2.63200       -1.49800
H          6.90700       -3.42300       -3.05500
C          8.72100       -3.17300       -1.98200
C          9.47200       -4.06800       -2.66300
H          9.16700       -4.56900       -3.57400
N         10.68800       -4.23300       -2.03000
H         11.41300       -4.85300       -2.36200
C         10.78400       -3.45200       -0.89900
C         11.80000       -3.26500        0.05000
H         12.73800       -3.79000       -0.04400
C         11.57700       -2.38700        1.12400
H         12.34800       -2.23000        1.86600
C         10.34500       -1.72100        1.23900
H         10.17200       -1.05300        2.07300
C          9.33100       -1.91900        0.28100
H          8.38800       -1.40200        0.38800
C          9.52700       -2.77900       -0.82300
C          7.80200       -0.21300       -2.11900
O          7.02200        0.25200       -1.29500
N          9.05900        0.21900       -2.22900
H          9.64200       -0.19900       -2.94300
C          9.67600        1.28300       -1.43200
H          9.38700        1.16300       -0.38700
C         11.19900        1.11400       -1.55400
H         11.69000        1.81200       -0.87500
H         11.47800        0.10200       -1.25600
C         11.68900        1.36500       -2.96000
N         11.44600        0.54300       -4.06600
C         11.87900        1.23400       -5.13200
H         11.80100        0.89600       -6.15700
N         12.36200        2.42900       -4.75700
H         12.60900        3.18700       -5.39000
C         12.25600        2.52700       -3.38900
H         12.48700        3.38500       -2.77200
C          9.25700        2.70300       -1.86200
O          9.57000        3.65700       -1.15500
N          8.59400        2.86000       -3.01600
H          8.41500        2.02700       -3.56300
C          8.18100        4.15600       -3.58500
H          8.12500        4.89200       -2.78100
C          9.24100        4.62700       -4.60500
H          9.67900        3.75600       -5.09700
H          8.76800        5.24000       -5.37400
C         10.34000        5.47700       -3.94600
H          9.91100        6.43100       -3.63900
H         10.71200        4.97900       -3.05400
C         11.53800        5.74000       -4.85700
O         11.89400        5.04900       -5.80500
O         12.27900        6.81300       -4.51900
H         12.97900        6.86500       -5.17100
C          6.77800        4.14900       -4.22400
O          6.22400        5.20600       -4.50000
N          6.16000        3.00000       -4.46700
H          5.24100        3.03300       -4.87300
H          6.63500        2.12200       -4.31500
