69
0 1
H         10.66000       -0.31000       -2.47400
C         10.04600       -0.25900       -1.57600
H         10.61500        0.20300       -0.77200
H          9.74000       -1.26300       -1.28700
C          8.82100        0.57500       -1.86600
O          8.65600        1.07000       -2.97600
N          7.95300        0.73900       -0.86900
H          8.15800        0.32500        0.02600
C          6.74900        1.56500       -0.99200
H          6.27800        1.33800       -1.94900
C          5.73400        1.20400        0.09900
H          5.47900        0.14800        0.00900
H          6.19200        1.35600        1.07800
C          4.46600        2.00000        0.02700
C          4.08100        2.94600        0.91300
H          4.64500        3.23700        1.79200
N          2.88200        3.50000        0.51300
H          2.40900        4.24600        1.02800
C          2.44700        2.96000       -0.67800
C          1.33800        3.21500       -1.49700
H          0.61200        3.95900       -1.21000
C          1.18800        2.49000       -2.69000
H          0.33700        2.67300       -3.33300
C          2.14300        1.52100       -3.04600
H          2.01900        0.96100       -3.96400
C          3.25400        1.27200       -2.21600
H          3.97600        0.52100       -2.50000
C          3.43700        1.98700       -1.01100
C          7.08800        3.06500       -1.00600
O          7.08900        3.73600        0.02300
N          7.36500        3.59700       -2.19800
H          7.48200        2.94900       -2.96800
C          7.69000        5.01100       -2.43100
H          8.40400        5.30700       -1.66000
C          8.42100        5.14700       -3.78600
H          8.64200        6.20100       -3.95900
H          9.38000        4.63600       -3.68300
C          7.72200        4.57100       -5.03800
H          7.54000        3.50600       -4.89400
C          6.39400        5.25100       -5.37600
H          6.52700        6.33200       -5.41500
H          6.03400        4.89900       -6.34300
H          5.64300        4.99500       -4.63100
C          8.64800        4.73300       -6.24500
H          9.59400        4.22700       -6.05300
H          8.19000        4.28400       -7.12600
H          8.83600        5.79000       -6.43500
C          6.50900        5.99700       -2.26900
O          6.69300        7.19200       -2.47600
N          5.31100        5.50900       -1.91500
H          5.28800        4.52100       -1.71500
C          4.06600        6.24800       -1.62200
H          3.30800        5.48300       -1.46100
C          4.24300        6.97900       -0.27300
H          4.58800        6.25600        0.46800
H          5.01900        7.73700       -0.38200
C          2.98700        7.66800        0.28500
H          3.23400        8.10600        1.25200
H          2.68900        8.48300       -0.37400
C          1.81500        6.71200        0.48400
O          1.74900        5.94800        1.43300
N          0.86100        6.68200       -0.41700
H          0.08300        6.07400       -0.24500
H          0.99000        7.18400       -1.29000
C          3.47600        7.14200       -2.74300
O          2.27600        7.40600       -2.75000
N          4.24000        7.59400       -3.72500
H          5.23900        7.44900       -3.67700
H          3.82300        8.16400       -4.44100
