78
0 1
H          9.00900        1.44000       -0.04900
C          9.46200        2.04100        0.73700
H         10.14200        1.42400        1.32300
H          8.68900        2.44800        1.38600
C         10.24000        3.17600        0.11700
O         11.44200        3.28700        0.32300
N          9.55700        4.02000       -0.65300
H          8.56600        3.87800       -0.76300
C         10.14400        5.22300       -1.25000
H         11.10100        4.97600       -1.71200
C          9.20600        5.76600       -2.33900
H          8.20800        5.88900       -1.91500
H          9.55200        6.76200       -2.61400
C          9.07500        4.97500       -3.60900
C          9.63000        3.77000       -3.88200
H         10.24800        3.20000       -3.19900
N          9.31500        3.39300       -5.17400
H          9.62500        2.52900       -5.59400
C          8.55300        4.34900       -5.80900
C          8.02300        4.44900       -7.10400
H          8.18600        3.66000       -7.82300
C          7.27600        5.58800       -7.45000
H          6.85600        5.68000       -8.44300
C          7.06800        6.60500       -6.50100
H          6.48500        7.47700       -6.77000
C          7.60400        6.49300       -5.20400
H          7.43700        7.28000       -4.48100
C          8.36400        5.36500       -4.82500
C         10.39200        6.30300       -0.18900
O          9.44600        6.84400        0.38000
N         11.65400        6.68100        0.03000
H         12.39700        6.15700       -0.41100
C         12.03100        7.73700        0.98900
H         11.59900        7.49000        1.96000
C         13.56400        7.78400        1.13200
H         13.96300        8.37700        0.30800
H         13.80800        8.31300        2.05500
C         14.28300        6.44200        1.14100
C         15.45700        6.27700        0.37700
H         15.86600        7.11000       -0.17800
C         16.09900        5.02500        0.32700
H         16.99500        4.88700       -0.25900
C         15.56900        3.93100        1.04100
O         16.17800        2.72000        0.97000
H         15.67500        2.04600        1.42900
C         14.40500        4.09800        1.82000
H         13.98700        3.26200        2.35900
C         13.77100        5.35300        1.87600
H         12.87000        5.46800        2.46300
C         11.49800        9.12800        0.59000
O         11.34000       10.00900        1.42700
N         11.22000        9.30800       -0.70300
H         11.39700        8.52600       -1.31400
C         10.61700       10.48800       -1.33000
H         10.84600       11.36900       -0.72900
C         11.26500       10.65700       -2.71500
H         10.81100       11.50900       -3.22400
H         12.31900       10.89700       -2.57200
C         11.18300        9.44900       -3.60500
C         10.24000        9.23600       -4.55000
H          9.44200        9.93100       -4.78900
N         10.43100        7.99400       -5.12600
H          9.80800        7.60000       -5.82200
C         11.49600        7.32900       -4.55800
C         12.04100        6.05100       -4.75100
H         11.61700        5.38700       -5.48800
C         13.13100        5.64500       -3.96200
H         13.56200        4.66200       -4.09600
C         13.67000        6.52400       -3.00600
H         14.52100        6.21200       -2.41400
C         13.12200        7.81000       -2.83000
H         13.56200        8.48600       -2.11100
C         12.01100        8.24100       -3.59000
C          9.07800       10.40600       -1.42400
O          8.44900       11.21200       -2.09900
N          8.43100        9.43100       -0.79400
H          8.93500        8.75500       -0.23700
H          7.42900        9.40300       -0.86200
