64
0 1
H          3.42900        2.59300        2.15100
C          3.31000        2.91200        1.11800
H          3.33100        2.04500        0.46000
H          4.11300        3.59600        0.84600
C          1.98600        3.62000        0.96000
O          1.15800        3.19400        0.16200
N          1.80500        4.70200        1.71600
H          2.55800        4.98300        2.32500
C          0.62900        5.57900        1.67900
H          0.14800        5.49200        0.70800
C         -0.39600        5.13100        2.73400
H          0.11600        4.89900        3.67000
H         -1.07100        5.96400        2.93500
C         -1.24900        3.97200        2.32600
C         -1.08600        2.68500        2.70800
H         -0.31300        2.33600        3.38100
N         -2.02900        1.89300        2.08000
H         -2.08500        0.89300        2.20400
C         -2.83900        2.63300        1.24600
C         -3.88900        2.29700        0.38000
H         -4.20800        1.27000        0.28200
C         -4.51600        3.31300       -0.36200
H         -5.32500        3.07100       -1.03800
C         -4.09200        4.64700       -0.22400
H         -4.58100        5.42500       -0.79600
C         -3.03900        4.97500        0.65200
H         -2.72300        6.00300        0.75100
C         -2.37900        3.97500        1.40200
C          1.04000        7.04500        1.92300
O          1.43200        7.36800        3.04400
N          0.92500        7.94600        0.92500
C          1.04500        9.37800        1.13800
H          2.09700        9.66300        1.10600
H          0.60200        9.68100        2.08800
C          0.29200       10.01500       -0.02500
H          0.64500       11.02500       -0.23300
H         -0.78000       10.01200        0.18300
C          0.60000        9.05400       -1.17200
H          1.57000        9.31400       -1.60200
H         -0.17300        9.08500       -1.94100
C          0.67200        7.67600       -0.49700
H         -0.29600        7.18500       -0.60400
C          1.76100        6.80900       -1.15400
O          2.86300        6.66700       -0.62900
N          1.46300        6.25100       -2.32700
H          0.52500        6.37800       -2.69200
C          2.34700        5.35500       -3.08900
H          2.85000        4.70000       -2.37600
C          1.50000        4.46000       -4.01800
H          0.93800        5.07900       -4.71900
H          2.17800        3.83100       -4.59700
C          0.54300        3.52000       -3.26300
H          0.14900        2.78800       -3.96800
H          1.10900        2.97300       -2.50900
C         -0.65300        4.21100       -2.60700
O         -1.16800        5.22000       -3.06500
N         -1.10900        3.72300       -1.48000
H         -1.94300        4.13100       -1.08700
H         -0.53900        3.07500       -0.94900
C          3.47200        6.10300       -3.84300
O          3.71700        5.88500       -5.02300
N          4.16500        7.02600       -3.19000
H          3.98000        7.18000       -2.20700
H          4.89200        7.51900       -3.68000
