73
0 1
H          2.98300        8.42500       -1.80200
C          2.65500        7.50500       -1.32400
H          1.98600        6.96300       -1.98800
H          2.13700        7.74300       -0.39600
C          3.86600        6.66200       -1.01100
O          4.22300        6.50800        0.15100
N          4.49600        6.11500       -2.05000
H          4.11700        6.27700       -2.97100
C          5.68300        5.24800       -1.94000
H          5.89400        5.05100       -0.88800
C          5.37500        3.90300       -2.61300
H          6.17200        3.20300       -2.35800
H          4.45100        3.50100       -2.19400
C          5.24500        3.94500       -4.10800
C          6.24200        3.66900       -4.97800
H          7.24600        3.37400       -4.68700
N          5.78900        3.81900       -6.27400
H          6.36000        3.62700       -7.08500
C          4.47100        4.21900       -6.30500
C          3.58500        4.51000       -7.35400
H          3.90600        4.41600       -8.38100
C          2.27100        4.90500       -7.05000
H          1.56700        5.11600       -7.84500
C          1.86500        5.00700       -5.70700
H          0.84800        5.29500       -5.47500
C          2.76300        4.71100       -4.66100
H          2.42800        4.76700       -3.63600
C          4.09200        4.31300       -4.93100
C          6.96100        5.86600       -2.53400
O          8.04300        5.29500       -2.41500
N          6.85000        7.02000       -3.19500
H          5.94200        7.45900       -3.21800
C          7.90100        7.62200       -4.02900
H          8.26000        6.86100       -4.72200
C          7.27600        8.76300       -4.85100
H          7.28900        9.67200       -4.24900
H          7.89200        8.94400       -5.73300
C          5.85600        8.51800       -5.27800
C          5.45400        7.54300       -6.12300
H          6.11600        6.85100       -6.62800
N          4.07500        7.50500       -6.16600
H          3.55400        6.78400       -6.65500
C          3.51300        8.46500       -5.35600
C          2.18600        8.80200       -5.05200
H          1.37000        8.26700       -5.51300
C          1.93800        9.85400       -4.15400
H          0.92200       10.13900       -3.91700
C          3.01600       10.53800       -3.56200
H          2.82100       11.34600       -2.87000
C          4.34500       10.17500       -3.85900
H          5.16200       10.70400       -3.39000
C          4.63000        9.13600       -4.77200
C          9.12300        8.10600       -3.23200
O         10.21400        8.22300       -3.77800
N          8.94100        8.34200       -1.93200
H          7.99200        8.26200       -1.58800
C          9.98800        8.63600       -0.95000
H         10.65400        9.37900       -1.39200
C          9.33900        9.27100        0.30100
H         10.14800        9.67800        0.91000
H          8.71800       10.11600       -0.00300
C          8.51200        8.33200        1.20800
H          9.07500        7.42300        1.42100
H          8.35500        8.83700        2.16100
C          7.12900        7.94500        0.67600
O          6.62600        8.35200       -0.36500
O          6.46400        7.06900        1.45200
H          5.60200        6.89600        1.02500
C         10.87000        7.42200       -0.58100
O         11.80200        7.55800        0.20300
N         10.59400        6.22200       -1.07700
H         11.18700        5.45200       -0.82000
H          9.81200        6.09000       -1.70400
