66
0 1
H         16.29400        7.10900       -4.91400
C         15.58900        7.93500       -4.84400
H         15.72900        8.61500       -5.68200
H         15.75100        8.47300       -3.91000
C         14.17800        7.40100       -4.86400
O         13.42000        7.62500       -3.92900
N         13.83200        6.65400       -5.91300
H         14.52600        6.48200       -6.62200
C         12.48400        6.09500       -6.12200
H         11.78100        6.91500       -6.27600
C         12.49900        5.20900       -7.38100
H         11.46900        4.95700       -7.63700
H         12.91700        5.77200       -8.21700
C         13.27300        3.93500       -7.21000
C         12.74200        2.77200       -6.76900
H         11.69300        2.61300       -6.54300
N         13.75200        1.87300       -6.50000
H         13.58500        1.00300       -5.99800
C         14.99100        2.39700       -6.79400
C         16.29500        1.90000       -6.66600
H         16.46200        0.90300       -6.28400
C         17.37700        2.71100       -7.05000
H         18.38900        2.33900       -6.96800
C         17.14000        4.00300       -7.55300
H         17.97700        4.61600       -7.86200
C         15.82600        4.49800       -7.66600
H         15.66200        5.48500       -8.07100
C         14.71700        3.71200       -7.28100
C         11.98000        5.27800       -4.91700
O         10.79400        5.30600       -4.60600
N         12.88900        4.59200       -4.21200
H         13.83500        4.60400       -4.55900
C         12.60000        3.73400       -3.05800
H         11.82000        3.03300       -3.35800
C         13.88200        2.94200       -2.72500
H         14.42100        2.70700       -3.64500
H         14.53300        3.57500       -2.12000
C         13.63400        1.62300       -1.97000
H         14.58800        1.25900       -1.58700
H         12.98400        1.78900       -1.11200
C         13.03900        0.51500       -2.84100
O         12.93400        0.53600       -4.06200
O         12.64100       -0.57900       -2.16700
H         12.28300       -1.17900       -2.82100
C         12.07100        4.50900       -1.82900
O         11.60900        3.89400       -0.87300
N         12.13000        5.84600       -1.85200
H         12.54100        6.28800       -2.66600
C         11.59300        6.74700       -0.82200
H         10.92100        6.17400       -0.18300
C         12.73800        7.26300        0.06900
H         12.30800        7.85300        0.87800
H         13.25300        6.41200        0.51500
C         13.76300        8.11800       -0.69100
H         14.24200        7.49100       -1.44300
H         13.24800        8.92800       -1.20800
S         15.07500        8.83800        0.33500
C         14.13000       10.10400        1.22600
H         14.80600       10.68900        1.85000
H         13.63700       10.76500        0.51200
H         13.37900        9.63200        1.85900
C         10.73300        7.88000       -1.42000
O         10.49500        8.89800       -0.78100
N         10.25700        7.74200       -2.65300
H         10.43600        6.89800       -3.17800
H          9.70600        8.49100       -3.03700
