78
0 1
H          5.43600       14.17900       -2.60600
C          4.61700       14.82900       -2.90800
H          4.60200       14.92700       -3.98900
H          4.74300       15.81000       -2.45300
C          3.31000       14.23500       -2.44300
O          2.54800       14.90700       -1.76300
N          3.05200       12.98100       -2.81500
H          3.72800       12.54000       -3.42500
C          1.93700       12.13100       -2.34700
H          1.98900       11.22100       -2.94300
C          2.19000       11.67700       -0.90400
H          2.26300       12.54800       -0.25100
H          1.34400       11.07800       -0.56500
C          3.42500       10.83800       -0.77400
C          4.61700       11.24600       -0.28500
H          4.81100       12.23400        0.11500
N          5.54000       10.22400       -0.40600
H          6.49700       10.29900       -0.09200
C          4.98700        9.10800       -0.99800
C          5.50600        7.85600       -1.36100
H          6.54400        7.62200       -1.18100
C          4.65300        6.90700       -1.95200
H          5.03400        5.93200       -2.22700
C          3.29700        7.21700       -2.16300
H          2.63800        6.47300       -2.59200
C          2.78800        8.47900       -1.79700
H          1.74200        8.70700       -1.95100
C          3.62300        9.46000       -1.21700
C          0.50400       12.62700       -2.60600
O         -0.44400       11.87900       -2.38100
N          0.33000       13.79700       -3.22300
H          1.13200       14.40700       -3.28800
C         -0.92900       14.24700       -3.83700
H         -1.70500       14.26800       -3.07100
C         -0.72800       15.67600       -4.36700
H         -1.64500       16.00400       -4.85800
H         -0.56600       16.33900       -3.51600
C          0.43400       15.82600       -5.33600
C          1.68200       16.28700       -4.87100
H          1.80500       16.56800       -3.83200
C          2.77000       16.39100       -5.75800
H          3.72700       16.75300       -5.41600
C          2.61300       16.03400       -7.11300
O          3.67400       16.12000       -7.95700
H          3.42000       15.98100       -8.87000
C          1.36100       15.58200       -7.58300
H          1.23400       15.31300       -8.62000
C          0.27300       15.48300       -6.69300
H         -0.68900       15.13900       -7.05300
C         -1.43000       13.31200       -4.96000
O         -2.58700       13.39100       -5.35800
N         -0.57500       12.41300       -5.46200
H          0.37100       12.43000       -5.11600
C         -0.93600       11.30600       -6.35600
H         -1.64300       11.67200       -7.10200
C          0.33400       10.83600       -7.08200
H          0.08400        9.99500       -7.73100
H          0.66900       11.64500       -7.73200
C          1.48900       10.43700       -6.20600
C          1.58500        9.28200       -5.50900
H          0.83300        8.49800       -5.51000
N          2.77600        9.25700       -4.81000
H          3.05200        8.49900       -4.19400
C          3.52200       10.39100       -5.03600
C          4.77600       10.81800       -4.57600
H          5.35500       10.18700       -3.91600
C          5.27600       12.05800       -5.00800
H          6.25600       12.39100       -4.69100
C          4.50100       12.86400       -5.86400
H          4.88800       13.81500       -6.20600
C          3.23100       12.43500       -6.29600
H          2.65200       13.06000       -6.96000
C          2.71300       11.18100       -5.90700
C         -1.63200       10.12300       -5.64600
O         -1.97500        9.13600       -6.28500
N         -1.83000       10.15500       -4.33400
H         -1.52100       10.94600       -3.78500
H         -2.30000        9.37900       -3.90300
