64
0 1
H         11.41100        5.79500        1.57200
C         11.11600        5.04500        2.30400
H         10.35100        5.44800        2.96400
H         11.98300        4.74500        2.89100
C         10.56900        3.83400        1.58700
O         11.10200        2.74000        1.72700
N          9.50500        4.03100        0.81100
H          9.15600        4.97100        0.70300
C          8.84700        2.98300        0.02000
H          9.62000        2.28700       -0.31000
C          7.86300        2.20400        0.91700
H          7.63700        1.25900        0.42600
H          8.37800        1.93800        1.84200
C          6.54400        2.82200        1.29600
C          6.14800        4.10700        1.12600
H          6.73700        4.90000        0.68400
N          4.85200        4.26300        1.57400
H          4.30700        5.10900        1.41600
C          4.35300        3.09300        2.10000
C          3.11200        2.74400        2.65100
H          2.33100        3.48400        2.74100
C          2.90400        1.42400        3.08500
H          1.95600        1.14000        3.52200
C          3.93500        0.47500        2.95800
H          3.77400       -0.53800        3.30300
C          5.17400        0.83500        2.39100
H          5.95800        0.09900        2.30100
C          5.41500        2.15300        1.94300
C          8.17800        3.57100       -1.24200
O          8.07000        4.79500       -1.34000
N          7.70800        2.75400       -2.20900
C          7.89500        1.31300       -2.30500
H          7.07300        0.80600       -1.79800
H          8.85200        0.99200       -1.89300
C          7.84500        1.00000       -3.79800
H          7.52300       -0.02400       -3.98800
H          8.82100        1.19100       -4.24900
C          6.83000        2.02000       -4.30700
H          5.82100        1.64800       -4.11700
H          6.96400        2.22800       -5.36900
C          7.10800        3.26100       -3.45000
H          7.84300        3.88700       -3.95800
C          5.82300        4.08300       -3.26400
O          5.53200        4.95200       -4.08300
N          5.04600        3.82300       -2.20600
H          5.34200        3.10800       -1.56000
C          3.72700        4.43700       -1.98600
H          3.28200        4.61200       -2.96700
C          2.78600        3.46000       -1.25600
H          2.99200        3.48300       -0.19000
H          1.75800        3.79300       -1.39500
C          2.89500        2.02700       -1.71500
N          2.69700        1.57500       -3.02000
C          2.88100        0.24800       -2.98300
H          2.78200       -0.40600       -3.84000
N          3.18800       -0.14900       -1.73600
H          3.34200       -1.10400       -1.44600
C          3.20100        0.96100       -0.92100
H          3.39200        0.99400        0.14400
C          3.84200        5.81400       -1.30900
O          3.36700        6.03900       -0.19900
N          4.54400        6.74500       -1.93800
H          4.97300        6.51900       -2.82700
H          4.65900        7.64600       -1.50700
