66
0 1
H          8.94800       13.03400       -2.93800
C          8.01000       13.30000       -2.45600
H          7.34700       13.77900       -3.17500
H          8.20300       13.97900       -1.62700
C          7.34300       12.05400       -1.92500
O          6.22400       11.73800       -2.31500
N          8.03100       11.35400       -1.02600
H          8.95500       11.69200       -0.78400
C          7.54300       10.13300       -0.35900
H          6.47100       10.03700       -0.53000
C          8.23200        8.91300       -0.98300
H          7.72400        8.01500       -0.62700
H          8.10000        8.94600       -2.06500
C          9.69700        8.77700       -0.68400
C         10.22000        7.99200        0.28500
H          9.63500        7.36500        0.95000
N         11.59500        8.11400        0.29400
H         12.19500        7.60400        0.92700
C         12.03200        8.99700       -0.67000
C         13.30500        9.45000       -1.04500
H         14.18600        9.07900       -0.54300
C         13.41800       10.40000       -2.07600
H         14.39300       10.75600       -2.38100
C         12.26000       10.87600       -2.71600
H         12.35000       11.59600       -3.52000
C         10.98800       10.40100       -2.34100
H         10.11000       10.75100       -2.86200
C         10.83700        9.45200       -1.30500
C          7.73800       10.14900        1.16800
O          7.25600        9.26500        1.87200
N          8.43800       11.15800        1.69100
H          8.76900       11.86300        1.04500
C          8.80400       11.32000        3.10000
H          9.31200       10.41600        3.43900
C          9.77400       12.51300        3.21900
H          9.33400       13.39900        2.75700
H          9.90500       12.72900        4.28100
C         11.18000       12.26300        2.63300
H         11.84500       13.04400        3.00100
H         11.55800       11.31300        3.01100
C         11.29100       12.25900        1.10500
O         10.40100       12.53700        0.30700
O         12.50800       11.90600        0.65100
H         12.44000       11.81200       -0.30500
C          7.58500       11.51800        4.02100
O          7.67100       11.25800        5.21700
N          6.44800       11.94300        3.46500
H          6.47800       12.18200        2.48000
C          5.14600       12.03300        4.12900
H          5.31000       12.46200        5.11900
C          4.24500       13.01100        3.34100
H          3.39900       13.25600        3.98500
H          4.78700       13.94200        3.16700
C          3.66300       12.50100        2.00300
H          3.19600       11.52800        2.15000
H          2.87300       13.18900        1.70200
C          4.64500       12.40800        0.83200
O          5.80300       12.79200        0.89600
N          4.21800       11.87800       -0.29100
H          3.27500       11.55600       -0.38900
H          4.87700       11.85300       -1.06700
C          4.45600       10.66900        4.35600
O          3.37300       10.61300        4.92500
N          5.01900        9.55700        3.89600
H          4.55200        8.68200        4.06400
H          5.90000        9.59100        3.40200
