64
0 1
H         -2.14200        9.93900       17.17200
C         -1.09700        9.99900       16.87200
H         -0.67000        8.99900       16.83100
H         -0.54500       10.60700       17.58800
C         -1.01000       10.63500       15.50500
O         -2.03400       10.98500       14.92700
N          0.21300       10.77900       14.99900
H          0.99500       10.44100       15.54100
C          0.54800       11.32900       13.67900
H         -0.25600       11.08800       12.98900
C          0.66100       12.86200       13.77800
H         -0.30700       13.26900       14.07000
H          1.36400       13.10200       14.57700
C          1.13000       13.57400       12.54100
C          0.33800       14.12600       11.59200
H         -0.74400       14.13600       11.60600
N          1.11500       14.64200       10.57500
H          0.72900       15.09300        9.75700
C          2.45700       14.45100       10.81300
C          3.61300       14.77500       10.08700
H          3.53700       15.28400        9.13800
C          4.86800       14.42700       10.61200
H          5.77100       14.66800       10.06800
C          4.95000       13.76400       11.85000
H          5.91800       13.49600       12.25200
C          3.78200       13.44600       12.57100
H          3.86100       12.93000       13.51700
C          2.50300       13.77800       12.07100
C          1.87100       10.70800       13.17500
O          2.75300       10.48100       14.00800
N          2.06000       10.47200       11.85900
C          3.35700       10.12700       11.30000
H          3.47900        9.04300       11.30900
H          4.17200       10.60200       11.84900
C          3.32000       10.64000        9.86400
H          4.01700       10.10000        9.22300
H          3.52800       11.71100        9.84900
C          1.86700       10.38700        9.47000
H          1.76000        9.34900        9.14900
H          1.54200       11.06400        8.67900
C          1.08700       10.62300       10.77100
H          0.71400       11.64500       10.76400
C         -0.09900        9.65600       10.87700
O          0.03600        8.54400       11.38200
N         -1.27400       10.08000       10.41100
H         -1.34500       11.00800       10.01400
C         -2.46100        9.22500       10.34700
H         -2.45700        8.56100       11.21400
C         -3.74300       10.07200       10.41500
H         -3.80300       10.73400        9.54900
H         -4.59400        9.39200       10.37000
C         -3.86100       10.88700       11.71800
H         -4.90700       11.15400       11.86200
H         -3.56300       10.26300       12.56200
C         -3.05700       12.18800       11.74100
O         -2.63300       12.73200       10.73400
N         -2.79400       12.73600       12.90300
H         -2.30500       13.60800       12.90800
H         -2.91300       12.18900       13.75200
C         -2.44200        8.34000        9.08900
O         -2.02800        8.76200        8.01600
N         -2.92500        7.10800        9.18800
H         -3.24900        6.75700       10.07300
H         -2.91100        6.53100        8.36300
