70
0 1
H          6.86100       -0.54600        0.93000
C          7.17600        0.19000        1.66800
H          8.25000        0.11200        1.82200
H          6.65300        0.01300        2.60600
C          6.85500        1.57100        1.15100
O          6.57800        1.73500       -0.03200
N          6.89400        2.56400        2.03800
H          7.09400        2.33000        3.00000
C          6.59900        3.97600        1.73000
H          6.27400        4.06200        0.69300
C          5.43800        4.43900        2.61900
H          5.14900        5.44700        2.31900
H          4.57800        3.79400        2.43200
C          5.71300        4.44100        4.09500
C          6.17200        5.50100        4.79700
H          6.38700        6.47400        4.36900
N          6.30900        5.15500        6.12700
H          6.60800        5.80500        6.84000
C          5.94800        3.84300        6.35000
C          5.90200        3.04600        7.50400
H          6.17300        3.46000        8.46400
C          5.48100        1.70900        7.39600
H          5.41900        1.08500        8.27900
C          5.11700        1.19100        6.14000
H          4.77800        0.16600        6.06200
C          5.16500        2.00100        4.98800
H          4.85400        1.59800        4.03600
C          5.57900        3.35000        5.06200
C          7.81400        4.91100        1.88000
O          7.71500        6.11000        1.63200
N          8.96500        4.37600        2.29100
H          8.98100        3.37900        2.44200
C         10.17200        5.12600        2.67500
H          9.89000        5.85500        3.43500
C         11.17300        4.13600        3.29800
H         11.73100        3.64900        2.49700
H         11.88800        4.68900        3.90900
C         10.50300        3.06700        4.14700
C         10.39900        1.74700        3.66200
H         10.89200        1.46600        2.74000
C          9.62900        0.79900        4.36200
H          9.53500       -0.21400        4.00000
C          8.95300        1.17200        5.54100
O          8.14000        0.28200        6.16200
H          7.42500        0.72900        6.62500
C          9.08000        2.48500        6.04000
H          8.57400        2.76500        6.95000
C          9.85400        3.43100        5.34200
H          9.92300        4.44700        5.70600
C         10.81200        5.90400        1.51200
O         11.49900        6.89600        1.72800
N         10.54800        5.46800        0.28000
H         10.01200        4.61100        0.21300
C         10.91200        6.12700       -0.97600
H         11.94900        6.45300       -0.88800
C         10.83700        5.09300       -2.12200
H         11.30500        5.54900       -2.99700
H         11.43900        4.22100       -1.86200
C          9.42500        4.62900       -2.54800
H          8.77100        5.49000       -2.68200
H          9.51000        4.14200       -3.52000
C          8.74300        3.63100       -1.60800
O          9.23300        3.16200       -0.58600
O          7.49200        3.29200       -1.97300
H          7.15700        2.65600       -1.31200
C         10.08200        7.39300       -1.29300
O         10.31000        8.03500       -2.31000
N          9.09400        7.76100       -0.48600
H          8.87700        7.22600        0.34500
H          8.57400        8.59100       -0.71700
