67
0 1
H          7.57000        8.99300        4.06000
C          8.39600        8.30500        3.88800
H          9.04600        8.69800        3.10900
H          8.01100        7.33100        3.58900
C          9.19100        8.14800        5.16200
O          9.45400        7.03000        5.59000
N          9.56600        9.26900        5.77700
H          9.26000       10.14500        5.38400
C         10.43400        9.31100        6.96500
H         11.41000        8.90100        6.70200
C         10.62200       10.77700        7.37600
H         10.99600       11.33600        6.51700
H          9.65200       11.19800        7.64600
C         11.57500       11.00000        8.51000
C         11.22900       11.24800        9.79400
H         10.21100       11.32200       10.15800
N         12.36700       11.36600       10.56700
H         12.34900       11.52800       11.56300
C         13.51100       11.19300        9.81800
C         14.87700       11.21300       10.13800
H         15.19700       11.39300       11.15200
C         15.81900       10.99200        9.11900
H         16.87600       11.00100        9.34600
C         15.38500       10.75500        7.80200
H         16.11500       10.58300        7.02200
C         14.01000       10.73600        7.49300
H         13.69100       10.55100        6.47900
C         13.03700       10.95600        8.49300
C          9.90900        8.47600        8.14700
O         10.69200        7.86000        8.86300
N          8.58500        8.37500        8.29800
H          7.99900        8.87900        7.64000
C          7.90300        7.55300        9.30800
H          8.26500        7.86600       10.28800
C          6.38600        7.83900        9.24800
H          5.94000        7.40700       10.14500
H          6.21700        8.91600        9.29700
C          5.62800        7.25400        8.03400
H          5.84800        6.19200        7.93400
H          4.55900        7.33700        8.23300
C          5.88900        7.94900        6.69700
O          6.42100        9.04600        6.60600
N          5.53500        7.33600        5.59200
H          5.17100        6.38400        5.61500
H          5.68300        7.82000        4.72900
C          8.17900        6.03800        9.20200
O          7.80000        5.29000       10.09900
N          8.79300        5.57600        8.10900
H          9.06000        6.24600        7.39600
C          9.08200        4.16400        7.83600
H          9.24000        3.66300        8.79200
C          7.85500        3.51000        7.17100
H          8.02400        2.43700        7.07500
H          6.99800        3.64800        7.83300
C          7.50600        4.09000        5.78900
H          7.57500        5.17600        5.81100
H          8.20900        3.71600        5.04500
C          6.08700        3.72700        5.37700
O          5.18200        4.54800        5.39100
N          5.82300        2.48900        5.02600
H          6.55100        1.79700        5.02500
H          4.87100        2.28600        4.78200
C         10.38900        3.97200        7.03900
O         10.57000        2.97400        6.34900
N         11.31700        4.92000        7.10300
H         11.16400        5.74000        7.67200
H         12.15900        4.80300        6.56700
