70
0 1
H          7.81100        0.12900        0.42800
C          7.75600        1.13500        0.01900
H          7.20900        1.77500        0.71200
H          7.24000        1.12500       -0.93900
C          9.14900        1.68600       -0.16500
O          9.45800        2.76600        0.32100
N          9.99300        0.96600       -0.90200
H          9.66900        0.09700       -1.29400
C         11.39200        1.35400       -1.15400
H         11.91000        1.44800       -0.19800
C         12.07000        0.23800       -1.96300
H         13.10900        0.52300       -2.14100
H         12.08800       -0.66900       -1.35700
C         11.43800       -0.08300       -3.28800
C         10.59100       -1.11200       -3.52600
H         10.29200       -1.85100       -2.79200
N         10.17500       -1.07700       -4.84200
H          9.56500       -1.76900       -5.25500
C         10.74100       -0.02300       -5.52700
C         10.62600        0.42800       -6.84900
H          9.98300       -0.08400       -7.55000
C         11.36600        1.55100       -7.25300
H         11.29400        1.91400       -8.27000
C         12.21300        2.19900       -6.33600
H         12.78900        3.05800       -6.65300
C         12.31800        1.73700       -5.00900
H         12.97700        2.24600       -4.31900
C         11.57500        0.62100       -4.56400
C         11.53200        2.71500       -1.86200
O         12.51300        3.41900       -1.65200
N         10.53200        3.11000       -2.65400
H          9.75800        2.47700       -2.77400
C         10.44700        4.40100       -3.34700
H         11.43000        4.65000       -3.74900
C          9.47200        4.23800       -4.52600
H          9.38900        5.18900       -5.05600
H          9.89200        3.52000       -5.23000
C          8.08300        3.77200       -4.12300
C          7.76200        2.39900       -4.15300
H          8.49300        1.68300       -4.50500
C          6.48600        1.96300       -3.74200
H          6.23700        0.91400       -3.76900
C          5.52700        2.90600       -3.30700
O          4.29500        2.49600       -2.90700
H          4.12100        1.58400       -3.14000
C          5.84700        4.27800       -3.29100
H          5.10400        4.99400       -2.96900
C          7.12400        4.70900       -3.69700
H          7.36600        5.76500       -3.68400
C         10.02500        5.57400       -2.43600
O          9.92900        6.70500       -2.90300
N          9.74000        5.31600       -1.15500
H          9.82500        4.35900       -0.83400
C          9.20100        6.28800       -0.19200
H          9.53100        7.28300       -0.49300
C          7.65800        6.27500       -0.25700
H          7.26600        7.04000        0.41500
H          7.35200        6.53900       -1.27000
C          7.03700        4.91600        0.11200
H          7.43600        4.14800       -0.54600
H          7.29100        4.65900        1.14000
C          5.52100        4.87800       -0.03800
O          4.80400        5.80400       -0.38600
O          4.96300        3.67700        0.21500
H          4.03300        3.80500        0.02100
C          9.74700        6.07800        1.23800
O          9.16400        6.53700        2.21300
N         10.86200        5.37600        1.40300
H         11.33700        4.98600        0.60500
H         11.19700        5.22900        2.34000
