67
0 1
H          5.25200        8.79100       -0.27900
C          5.10600        9.84000       -0.02100
H          4.14500        9.96600        0.47300
H          5.14300       10.44700       -0.92400
C          6.21100       10.27100        0.91200
O          7.14900        9.52100        1.14800
N          6.09900       11.48100        1.46100
H          5.29200       12.03500        1.22600
C          7.12400       12.07900        2.33300
H          8.06000       12.15400        1.77600
C          6.67400       13.49700        2.71000
H          6.44300       14.04500        1.79500
H          5.75600       13.43400        3.29700
C          7.68000       14.30100        3.47400
C          7.66800       14.51800        4.80900
H          6.92000       14.13500        5.49200
N          8.76700       15.27500        5.16600
H          8.97800       15.53600        6.11800
C          9.55100       15.58000        4.07500
C         10.74400       16.30200        3.92500
H         11.22400       16.74700        4.78300
C         11.30700       16.43200        2.64400
H         12.22800       16.98200        2.50800
C         10.67200       15.84100        1.53600
H         11.11000       15.94200        0.55200
C          9.47400       15.11800        1.69900
H          8.99800       14.66700        0.84100
C          8.88100       14.96800        2.97300
C          7.42700       11.24500        3.59300
O          8.55700       11.22600        4.07100
N          6.44200       10.49100        4.09000
H          5.55800       10.48300        3.59700
C          6.57200        9.54600        5.20900
H          7.02200       10.05600        6.06100
C          5.16000        9.07600        5.58700
H          5.21700        8.44000        6.47200
H          4.54500        9.94100        5.83700
C          4.49200        8.30900        4.47100
N          3.94200        8.87500        3.31700
C          3.58600        7.83800        2.54200
H          3.14100        7.92800        1.56000
N          3.90100        6.67400        3.13400
H          3.81700        5.76000        2.70600
C          4.47900        6.95100        4.35100
H          4.90700        6.24600        5.05100
C          7.45900        8.32200        4.90600
O          7.73500        7.54000        5.81100
N          7.87600        8.13100        3.65100
H          7.56900        8.79300        2.94700
C          8.69100        7.00200        3.18400
H          9.25100        6.61400        4.03600
C          7.77100        5.87000        2.68600
H          8.38500        5.00500        2.43600
H          7.10200        5.57900        3.49600
C          6.92600        6.26000        1.46400
H          6.33100        7.13500        1.72400
H          7.58700        6.53800        0.64200
S          5.78000        4.97700        0.87900
C          6.96000        3.79200        0.17700
H          6.41600        2.97100       -0.28900
H          7.57700        4.28800       -0.57300
H          7.60100        3.39400        0.96400
C          9.74900        7.42200        2.14400
O         10.26500        6.59700        1.39900
N         10.09300        8.70200        2.06300
H          9.66700        9.38000        2.67700
H         10.77200        8.97300        1.37100
