64
0 1
H         10.01700        5.59800      -13.20300
C         10.01700        6.57200      -12.71400
H          8.99200        6.90300      -12.56100
H         10.55300        7.29100      -13.33000
C         10.70400        6.44800      -11.37500
O         11.16500        5.37300      -11.01200
N         10.77700        7.55300      -10.63900
H         10.30300        8.37800      -10.97100
C         11.24600        7.56300       -9.24900
H         12.04400        6.82700       -9.15700
C         11.82900        8.94700       -8.91900
H         12.38000        8.88300       -7.98200
H         12.55300        9.21500       -9.69000
C         10.83200       10.05800       -8.79900
C         10.34600       10.54000       -7.63400
H         10.63700       10.19600       -6.64900
N          9.40300       11.51500       -7.88900
H          8.88400       11.98900       -7.15100
C          9.22900       11.71100       -9.24100
C          8.39500       12.55900       -9.98400
H          7.71000       13.22500       -9.48300
C          8.47200       12.53300      -11.38700
H          7.83900       13.18200      -11.97700
C          9.38300       11.67000      -12.02400
H          9.44800       11.66600      -13.10300
C         10.21500       10.82100      -11.26700
H         10.92400       10.18300      -11.77000
C         10.15000       10.80900       -9.85500
C         10.10100        7.16600       -8.28800
O          8.93000        7.35200       -8.62900
N         10.38900        6.65000       -7.07400
C         11.71800        6.31200       -6.57700
H         12.38500        7.17300       -6.58600
H         12.13500        5.50600       -7.18300
C         11.52300        5.82300       -5.14200
H         11.56000        6.67000       -4.45500
H         12.26300        5.07100       -4.86700
C         10.11100        5.24600       -5.17600
H          9.66800        5.17800       -4.18100
H         10.13800        4.25600       -5.63500
C          9.37100        6.21700       -6.10700
H          8.59000        5.66200       -6.63000
C          8.68700        7.39900       -5.38100
O          8.76100        7.52000       -4.16000
N          8.03100        8.28000       -6.14500
H          8.05700        8.08600       -7.14300
C          7.27900        9.48800       -5.75000
H          6.93800        9.92900       -6.68500
C          6.01000        9.08400       -4.97900
H          5.48000        8.31000       -5.53700
H          6.30700        8.65900       -4.01900
C          5.03300       10.23600       -4.70300
H          4.31300        9.86900       -3.97000
H          5.55600       11.07400       -4.24300
S          4.06900       10.82800       -6.12600
C          5.10700       12.17400       -6.76100
H          5.36200       12.85700       -5.95000
H          6.01800       11.77600       -7.20200
H          4.55700       12.72000       -7.52800
C          8.08000       10.59800       -5.03800
O          7.99200       11.76100       -5.41900
N          8.90100       10.29500       -4.04500
H          8.97400        9.33100       -3.74300
H          9.41000       11.03400       -3.59000
