74
0 1
H         10.63100        9.50500        0.33100
C          9.84900        9.56600        1.08600
H          8.87800        9.38800        0.62900
H          9.86400       10.55200        1.54700
C         10.10100        8.52200        2.14800
O         10.26900        8.85900        3.31400
N         10.11700        7.25500        1.74300
H         10.01400        7.07200        0.75700
C         10.44300        6.10400        2.59500
H         10.60200        6.43500        3.62200
C          9.28900        5.08600        2.59000
H          9.04200        4.84700        1.55500
H          9.65300        4.16300        3.04300
C          8.01300        5.43400        3.30400
C          7.70600        6.59800        3.92300
H          8.35300        7.46500        3.97800
N          6.45200        6.50900        4.49300
H          6.01500        7.27000        4.99300
C          5.89000        5.26800        4.29100
C          4.68000        4.68600        4.69500
H          3.96700        5.25300        5.27400
C          4.40900        3.35500        4.33300
H          3.47900        2.89000        4.63100
C          5.34900        2.62800        3.58000
H          5.13700        1.60400        3.30300
C          6.56100        3.22400        3.18100
H          7.28100        2.65400        2.60800
C          6.86100        4.56100        3.52100
C         11.73300        5.42000        2.12600
O         12.04500        5.41600        0.93700
N         12.44400        4.78000        3.05600
H         12.13000        4.84500        4.01700
C         13.61300        3.92100        2.78900
H         13.78600        3.88900        1.71200
C         14.87800        4.51700        3.43400
H         14.76200        4.52300        4.51700
H         15.73300        3.88900        3.18300
C         15.17100        5.94200        2.94500
H         15.22800        5.92400        1.85600
H         14.34900        6.60000        3.22600
S         16.71500        6.66200        3.57100
C         16.29800        6.89300        5.32000
H         17.12600        7.39000        5.82500
H         15.40300        7.51000        5.40500
H         16.12300        5.92600        5.79100
C         13.34800        2.46200        3.21400
O         14.24000        1.75700        3.67800
N         12.08800        2.03000        3.12200
H         11.40500        2.65100        2.71300
C         11.57000        0.75800        3.63600
H         12.31500       -0.02400        3.48000
C         11.29100        0.88500        5.14500
H         10.76800       -0.00700        5.49400
H         12.25000        0.91600        5.66500
C         10.51000        2.10100        5.55100
C          9.16400        2.22200        5.52200
H          8.47400        1.43900        5.22700
N          8.80600        3.51600        5.84100
H          7.85200        3.85200        5.79400
C          9.91100        4.31100        6.05500
C         10.07300        5.67800        6.31900
H          9.21000        6.32100        6.40300
C         11.37000        6.19800        6.46800
H         11.51100        7.25200        6.67000
C         12.48200        5.34300        6.37000
H         13.47700        5.74300        6.50900
C         12.30700        3.97000        6.10400
H         13.16700        3.31900        6.03400
C         11.01800        3.42200        5.91700
C         10.28900        0.36300        2.88500
O          9.57700        1.20500        2.34600
N          9.95900       -0.92100        2.85100
H         10.54100       -1.60900        3.29700
H          9.12100       -1.18000        2.35600
