67
0 1
H         -0.64700        6.85900       -1.91800
C         -0.81100        6.48700       -0.90700
H         -0.16800        5.62800       -0.72500
H         -1.85500        6.20400       -0.78600
C         -0.47300        7.58000        0.07700
O         -0.16400        8.69700       -0.32000
N         -0.51200        7.25700        1.36900
H         -0.72000        6.30300        1.61400
C         -0.23400        8.19600        2.47000
H         -0.93600        9.02900        2.41300
C         -0.45600        7.46100        3.80200
H         -0.28200        8.16400        4.61900
H         -1.50100        7.15300        3.86200
C          0.41600        6.25700        4.02600
C          0.04100        4.97100        3.83800
H         -0.94700        4.65100        3.53300
N          1.11300        4.13400        4.08100
H          1.06800        3.12800        4.00100
C          2.23900        4.84000        4.44400
C          3.54600        4.45100        4.77100
H          3.82700        3.40900        4.75600
C          4.48400        5.43700        5.12200
H          5.49700        5.15800        5.37800
C          4.10000        6.79000        5.15100
H          4.82100        7.54600        5.43000
C          2.78300        7.16700        4.82200
H          2.50500        8.21100        4.85400
C          1.81900        6.20500        4.44500
C          1.17800        8.80400        2.42100
O          1.41200        9.86400        2.99300
N          2.11300        8.15200        1.72700
H          1.84700        7.28700        1.27500
C          3.49600        8.58800        1.52300
H          3.88200        9.01300        2.45000
C          4.31500        7.33800        1.16300
H          5.37300        7.59900        1.14000
H          4.17600        6.57800        1.93400
C          3.92300        6.75600       -0.17500
N          2.72000        6.10000       -0.45800
C          2.73600        5.86300       -1.77800
H          1.94100        5.37200       -2.32400
N          3.86500        6.33900       -2.33100
H          4.09000        6.31600       -3.31700
C          4.62500        6.90800       -1.33400
H          5.56600        7.43200       -1.44000
C          3.65900        9.65600        0.42500
O          4.77800       10.10800        0.19200
N          2.58700       10.01100       -0.29600
H          1.70600        9.56800       -0.07000
C          2.65700       10.83200       -1.51600
H          3.50900       11.51000       -1.43600
C          2.92100        9.87400       -2.69000
H          3.85300        9.35000       -2.48900
H          2.12000        9.13400       -2.74000
C          3.04200       10.55300       -4.05800
H          2.05700       10.91300       -4.35800
H          3.70600       11.41400       -3.97400
S          3.67100        9.45900       -5.36500
C          5.43400        9.42400       -4.93900
H          5.57300        8.98900       -3.95000
H          5.97200        8.82600       -5.67500
H          5.83100       10.44000       -4.94600
C          1.42400       11.72200       -1.76200
O          1.51600       12.73200       -2.44800
N          0.26000       11.40500       -1.21000
H         -0.52300       12.01400       -1.37200
H          0.15800       10.54500       -0.68900
