63
0 1
H          7.62400        8.91800        2.69400
C          6.79100        9.42700        2.21200
H          7.16100       10.27000        1.63200
H          6.08900        9.77800        2.96600
C          6.09200        8.45800        1.28800
O          6.53400        7.32700        1.13200
N          5.00000        8.90500        0.67500
H          4.69600        9.85100        0.85500
C          4.17000        8.12200       -0.24700
H          4.81000        7.40800       -0.76700
C          3.11800        7.33600        0.55700
H          2.54500        6.70200       -0.11800
H          3.63900        6.66900        1.24600
C          2.15100        8.16100        1.35100
C          0.94100        8.57800        0.91600
H          0.52100        8.35300       -0.05900
N          0.34300        9.35800        1.88400
H         -0.56200        9.79900        1.75400
C          1.14400        9.49200        2.99700
C          0.99200       10.18100        4.20900
H          0.09800       10.75500        4.40000
C          2.01500       10.10600        5.17000
H          1.91400       10.62700        6.11200
C          3.16700        9.34200        4.90800
H          3.94700        9.27700        5.65500
C          3.30900        8.65700        3.68600
H          4.19000        8.06100        3.50100
C          2.30600        8.72200        2.69300
C          3.52000        9.04600       -1.29800
O          3.37000       10.24500       -1.04200
N          3.14500        8.54100       -2.49200
C          3.29000        7.16800       -2.95800
H          3.00600        6.44000       -2.20100
H          4.32200        7.00100       -3.27100
C          2.36000        7.04600       -4.16400
H          1.34900        6.81200       -3.82500
H          2.71200        6.29700       -4.87300
C          2.39200        8.45400       -4.75900
H          1.49800        8.66400       -5.34700
H          3.28600        8.56700       -5.37400
C          2.50500        9.35600       -3.52500
H          3.14800       10.20400       -3.76400
C          1.13700        9.89300       -3.07400
O          0.36100        9.19500       -2.42100
N          0.83200       11.13400       -3.45700
H          1.49100       11.63500       -4.03500
C         -0.39000       11.85600       -3.09500
H         -1.18900       11.13400       -2.92500
C         -0.15300       12.68000       -1.81100
H          0.85800       13.09100       -1.82600
H         -0.84500       13.52400       -1.78400
C         -0.35000       11.87100       -0.51900
H          0.29600       10.99600       -0.52700
H         -0.05700       12.48800        0.33100
C         -1.80100       11.43600       -0.31100
O         -2.74300       11.72100       -1.04100
O         -2.03300       10.70100        0.79600
H         -2.97600       10.52100        0.76500
C         -0.85900       12.76500       -4.23900
O         -0.08000       13.15900       -5.10000
N         -2.13600       13.12500       -4.25300
H         -2.45600       13.72500       -4.99600
H         -2.75900       12.80100       -3.52800
