67
0 1
H          6.49400        9.84200        4.07600
C          7.35300        9.46000        3.52800
H          7.36000        8.37300        3.56800
H          8.27000        9.85400        3.96400
C          7.25400        9.90000        2.08700
O          7.08900        9.07300        1.19700
N          7.36900       11.20500        1.84700
H          7.60600       11.80800        2.62000
C          7.21400       11.82300        0.52000
H          6.21800       11.59400        0.13800
C          7.34400       13.34600        0.66300
H          7.23800       13.80300       -0.32300
H          6.51900       13.70900        1.27700
C          8.62900       13.81100        1.28000
C          9.75100       14.14100        0.60000
H          9.84300       14.13700       -0.48000
N         10.76200       14.44200        1.49200
H         11.69400       14.70900        1.21000
C         10.34200       14.31300        2.79900
C         10.98500       14.48700        4.03300
H         12.02400       14.77600        4.07200
C         10.25700       14.28100        5.21700
H         10.73600       14.41100        6.17800
C          8.90100       13.91200        5.15200
H          8.34300       13.76700        6.06700
C          8.26500       13.74000        3.90600
H          7.21800       13.47800        3.87400
C          8.97200       13.92700        2.69700
C          8.21700       11.30300       -0.52300
O          7.91100       11.28900       -1.71300
N          9.38600       10.81500       -0.09500
H          9.57700       10.84700        0.90200
C         10.38400       10.17400       -0.96000
H         10.55700       10.84500       -1.80300
C         11.72100       10.03800       -0.20000
H         12.50500        9.89500       -0.94600
H         11.94000       10.97500        0.31500
C         11.83100        8.86900        0.80100
H         11.65800        7.92900        0.27900
H         12.85200        8.83800        1.18000
C         10.89700        8.95100        2.00700
O         10.41900       10.00000        2.40400
N         10.59500        7.84100        2.64300
H         10.93900        6.95200        2.32500
H          9.98400        7.93100        3.43400
C          9.91800        8.83400       -1.56700
O         10.61800        8.27600       -2.40700
N          8.76400        8.30200       -1.14600
H          8.25100        8.78300       -0.41500
C          8.12500        7.11700       -1.73700
H          8.89300        6.49400       -2.18800
C          7.41100        6.29300       -0.64500
H          6.52300        6.84900       -0.34000
H          7.07500        5.34500       -1.06600
C          8.23500        6.00900        0.62500
H          8.78000        6.90400        0.91800
H          7.51800        5.81700        1.42300
S          9.38300        4.59600        0.62600
C         10.52600        4.97600       -0.72900
H         11.40100        4.33000       -0.65500
H         10.03700        4.78700       -1.68400
H         10.84000        6.01700       -0.67700
C          7.15000        7.46400       -2.88000
O          6.57200        6.57500       -3.49200
N          6.93200        8.73700       -3.19400
H          6.29600        8.93900       -3.94700
H          7.40000        9.47900       -2.69200
