71
0 1
H          8.27100        7.87800       -3.22900
C          9.08600        7.99000       -3.94100
H          8.76200        8.61300       -4.77400
H          9.39500        7.01500       -4.31400
C         10.25800        8.65600       -3.26100
O         10.68600        9.72500       -3.67700
N         10.77500        8.02700       -2.20800
H         10.39600        7.13100       -1.95200
C         11.98800        8.48300       -1.52300
H         11.92900        9.56400       -1.38600
C         12.08400        7.82800       -0.13800
H         11.23600        8.15400        0.46600
H         12.01600        6.74500       -0.25200
C         13.34800        8.14600        0.60200
C         14.49000        7.42400        0.52900
H         14.61200        6.51900       -0.05500
N         15.48700        8.05700        1.24100
H         16.45500        7.74000        1.24000
C         15.03200        9.21600        1.83300
C         15.64600       10.18400        2.64000
H         16.68200       10.07900        2.92400
C         14.89600       11.29300        3.06700
H         15.35400       12.05200        3.68600
C         13.54800       11.41800        2.68200
H         12.97700       12.27500        3.00900
C         12.94100       10.43700        1.87200
H         11.90600       10.54600        1.58400
C         13.66500        9.30800        1.43000
C         13.25600        8.17900       -2.33600
O         13.42300        7.06800       -2.84100
N         14.19500        9.12800       -2.37400
H         14.00700       10.01700       -1.93200
C         15.55300        8.92200       -2.87700
H         15.85600        7.89900       -2.64800
C         15.57900        9.10100       -4.40200
H         14.88300        8.39300       -4.85500
H         15.22800       10.10500       -4.64700
C         16.94900        8.88800       -5.01600
C         17.42700        7.57900       -5.22100
H         16.80300        6.73300       -4.96100
C         18.70500        7.37100       -5.77500
H         19.06800        6.36700       -5.93400
C         19.50700        8.47900       -6.12800
O         20.74500        8.29100       -6.65100
H         20.89100        7.38300       -6.92000
C         19.03000        9.78900       -5.91500
H         19.65100       10.62900       -6.18800
C         17.75400        9.99300       -5.35600
H         17.38800       10.99900       -5.19300
C         16.54300        9.87300       -2.19000
O         16.22200       11.03300       -1.94200
N         17.75700        9.39000       -1.91000
H         17.92400        8.41100       -2.08600
C         18.80500       10.13100       -1.18900
H         18.59800       11.20000       -1.27200
C         18.74400        9.76300        0.30200
H         19.42800       10.40600        0.85700
H         17.73800        9.96300        0.66900
C         19.08800        8.32100        0.58700
N         18.23100        7.22900        0.42500
C         18.95300        6.14400        0.74300
H         18.57800        5.12900        0.72100
N         20.20500        6.49600        1.08200
H         20.94300        5.85900        1.35000
C         20.31000        7.86500        0.98400
H         21.18900        8.47500        1.15200
C         20.21600        9.93100       -1.77600
O         21.21800       10.18300       -1.11700
N         20.33400        9.45700       -3.00900
H         19.51200        9.28800       -3.56700
H         21.25800        9.33500       -3.38800
