67
0 1
H          3.21400       14.42200        9.27500
C          4.18200       14.81500        8.97000
H          4.92000       14.63300        9.74900
H          4.10100       15.88600        8.78600
C          4.62100       14.13200        7.69700
O          4.82500       14.78800        6.68400
N          4.76100       12.80900        7.74900
H          4.53200       12.32800        8.60600
C          5.14700       11.97200        6.60800
H          4.73800       12.41400        5.69900
C          6.67900       11.95300        6.47700
H          7.04400       12.98100        6.44100
H          7.10500       11.48100        7.36400
C          7.18700       11.24900        5.25600
C          7.77900       10.03400        5.23400
H          7.97400        9.42200        6.10800
N          8.03900        9.66800        3.92800
H          8.46000        8.78500        3.67800
C          7.62200       10.63300        3.03700
C          7.64200       10.71800        1.63700
H          8.06100        9.91700        1.04700
C          7.11100       11.86200        1.01600
H          7.12200       11.94900       -0.06200
C          6.56900       12.89800        1.79900
H          6.16500       13.77800        1.31800
C          6.55200       12.80000        3.20500
H          6.13700       13.60500        3.79700
C          7.08000       11.66600        3.86000
C          4.56800       10.55300        6.73200
O          4.12300       10.14900        7.80600
N          4.57200        9.79200        5.63400
H          5.03500       10.15700        4.81500
C          4.13900        8.39200        5.60900
H          3.12700        8.34400        6.01500
C          4.09700        7.90600        4.15000
H          3.38500        8.51500        3.59300
H          5.08200        8.04400        3.70100
C          3.71000        6.42700        4.01100
H          3.66600        6.18200        2.94900
H          4.50000        5.81800        4.45100
S          2.13500        5.94500        4.77600
C          0.95300        6.85200        3.74400
H          1.11000        7.92500        3.85400
H          1.08300        6.56800        2.69900
H         -0.06100        6.60700        4.05800
C          5.04300        7.50300        6.48100
O          6.26400        7.50500        6.32300
N          4.44200        6.71900        7.37900
H          3.43300        6.73400        7.44200
C          5.14500        5.83300        8.31000
H          6.01000        5.41300        7.79700
C          5.63800        6.66500        9.51000
H          6.24900        7.49000        9.14400
H          4.77700        7.09500       10.02400
C          6.46300        5.86700       10.53000
H          6.84900        6.56400       11.27400
H          5.79900        5.17500       11.04900
S          7.86000        4.91600        9.85700
C          8.85300        6.24300        9.11800
H          9.08300        6.99500        9.87300
H          9.78300        5.82500        8.73200
H          8.30300        6.70500        8.29700
C          4.24300        4.66900        8.74700
O          3.02900        4.80700        8.82800
N          4.81400        3.51000        9.04600
H          4.22100        2.74800        9.33100
H          5.81700        3.41500        9.00700
