67
0 1
H          8.29500       11.25400        5.48800
C          8.94000       10.72800        4.78700
H          9.72900       10.21200        5.33200
H          9.38300       11.43300        4.08600
C          8.12800        9.71100        4.02200
O          8.41200        8.52000        4.08300
N          7.10800       10.17700        3.30300
H          6.96700       11.17300        3.25900
C          6.33200        9.33000        2.39500
H          6.20800        8.35300        2.86400
C          4.93500        9.91500        2.18100
H          4.45100       10.03600        3.15200
H          5.02900       10.90400        1.72900
C          4.04700        9.07000        1.32200
C          3.68400        9.35800        0.05300
H          3.98300       10.24400       -0.49500
N          2.88200        8.35000       -0.44000
H          2.51900        8.35400       -1.39300
C          2.70100        7.34300        0.48400
C          1.99800        6.13000        0.45600
H          1.44700        5.84000       -0.42700
C          2.00600        5.30900        1.59700
H          1.45400        4.37800        1.59700
C          2.72400        5.70500        2.74100
H          2.71600        5.07700        3.62100
C          3.43300        6.92300        2.75400
H          3.97000        7.22200        3.64200
C          3.43600        7.77700        1.62800
C          7.06500        9.11000        1.06200
O          7.65500       10.03400        0.50700
N          7.02000        7.87800        0.55400
H          6.47700        7.18700        1.05000
C          7.76600        7.41700       -0.62700
H          8.65800        8.03200       -0.75600
C          8.21400        5.96300       -0.37500
H          8.47300        5.48800       -1.32200
H          9.11400        5.98600        0.24100
C          7.17800        5.12400        0.33900
N          5.93600        4.75700       -0.18000
C          5.26500        4.17600        0.82300
H          4.25700        3.79000        0.74400
N          6.01000        4.17400        1.94100
H          5.71200        3.81800        2.83800
C          7.21600        4.77700        1.65900
H          8.02000        4.99100        2.35200
C          6.97500        7.54600       -1.93700
O          7.49100        8.07600       -2.91800
N          5.72600        7.07700       -1.96900
H          5.40300        6.58000       -1.14700
C          4.86400        7.05800       -3.15700
H          5.49400        6.83900       -4.02000
C          3.86000        5.89900       -3.02200
H          4.41000        4.98600       -2.78400
H          3.17300        6.10200       -2.20200
C          3.05100        5.64400       -4.29800
H          2.46400        6.52900       -4.54000
H          3.74200        5.45400       -5.12000
S          1.91800        4.23500       -4.16100
C          1.15000        4.30600       -5.79900
H          1.91300        4.18600       -6.56800
H          0.41700        3.50400       -5.89100
H          0.65000        5.26700       -5.92900
C          4.22000        8.43500       -3.41400
O          3.01300        8.62300       -3.28900
N          5.02700        9.44300       -3.71300
H          6.02600        9.28200       -3.73500
H          4.63300       10.35600       -3.86600
