81
0 1
H         19.19100       15.04700       -6.46800
C         18.11200       15.11600       -6.33900
H         17.66700       15.55600       -7.23000
H         17.88600       15.72600       -5.46700
C         17.55500       13.72700       -6.13900
O         18.29900       12.75500       -6.14600
N         16.24000       13.62900       -5.95000
H         15.68800       14.46900       -5.99500
C         15.54300       12.34100       -5.88200
H         16.17900       11.64800       -5.33000
C         14.22800       12.49100       -5.10100
H         14.46100       12.78900       -4.07800
H         13.64400       13.29300       -5.55500
C         13.37400       11.25700       -5.04800
C         12.08500       11.17000       -5.45000
H         11.49100       11.98900       -5.84000
N         11.63500        9.87500       -5.28800
H         10.69100        9.57600       -5.52800
C         12.61200        9.05600       -4.76800
C         12.64800        7.69200       -4.45000
H         11.77500        7.07600       -4.60400
C         13.82900        7.14300       -3.92500
H         13.87400        6.09300       -3.66900
C         14.95200        7.96400       -3.72100
H         15.85600        7.53900       -3.30600
C         14.90300        9.33600       -4.03900
H         15.77000        9.95300       -3.85500
C         13.73300        9.91900       -4.57600
C         15.31800       11.72800       -7.27500
O         15.09600       12.45100       -8.24400
N         15.28900       10.39000       -7.33700
H         15.44200        9.89600       -6.47000
C         15.04700        9.55000       -8.52400
H         15.94000        9.54700       -9.15000
C         14.80200        8.12600       -7.99000
H         15.71400        7.78500       -7.49800
H         14.02900        8.18700       -7.22200
C         14.37000        7.04500       -8.93700
C         14.57400        6.99400      -10.27400
H         15.08600        7.75200      -10.85700
N         13.98900        5.85500      -10.79200
H         13.99900        5.62700      -11.77600
C         13.38500        5.10200       -9.80900
C         12.64900        3.90800       -9.82800
H         12.46600        3.39500      -10.76000
C         12.15700        3.38900       -8.61800
H         11.59200        2.46600       -8.61400
C         12.41200        4.06300       -7.41000
H         12.04400        3.65100       -6.47900
C         13.15300        5.26100       -7.40400
H         13.34400        5.77500       -6.47300
C         13.64900        5.81800       -8.60400
C         13.87700       10.02600       -9.40700
O         13.97000        9.97900      -10.63200
N         12.80900       10.53900       -8.79500
H         12.78700       10.49600       -7.78700
C         11.69600       11.21500       -9.47300
H         12.07200       11.61800      -10.41500
C         10.58800       10.20700       -9.84400
H          9.63700       10.72600       -9.96600
H         10.84200        9.80100      -10.82400
C         10.39300        9.03700       -8.92300
C         10.94500        7.81800       -9.11000
H         11.57700        7.55100       -9.95000
N         10.62000        6.98800       -8.05700
H         10.97500        6.04100       -7.97600
C          9.84600        7.63900       -7.12300
C          9.30400        7.24800       -5.89100
H          9.45400        6.24300       -5.52600
C          8.55800        8.17600       -5.14500
H          8.12600        7.89000       -4.19500
C          8.35800        9.47600       -5.64400
H          7.77000       10.18400       -5.07600
C          8.90300        9.85700       -6.88700
H          8.73200       10.85500       -7.26600
C          9.66900        8.95400       -7.65600
C         11.24600       12.45300       -8.67800
O         10.07700       12.67100       -8.38900
N         12.19600       13.27700       -8.25300
H         13.16600       13.08300       -8.47200
H         11.92400       14.10500       -7.75000
