66
0 1
H          3.93500        4.48300        2.98500
C          4.31300        5.19900        2.25700
H          4.17300        6.21200        2.63000
H          3.78100        5.08100        1.31500
C          5.78700        4.95100        2.04200
O          6.36600        4.08500        2.68400
N          6.39000        5.72100        1.14000
H          5.80700        6.36800        0.62300
C          7.82100        5.63900        0.78900
H          8.36700        5.20300        1.62600
C          7.98500        4.71000       -0.42200
H          9.04800        4.49800       -0.54900
H          7.49400        3.76000       -0.21000
C          7.45200        5.24700       -1.72000
C          8.19300        5.87500       -2.66000
H          9.26100        6.05100       -2.58400
N          7.38500        6.25500       -3.71400
H          7.73100        6.72500       -4.53800
C          6.07200        5.89700       -3.50000
C          4.90000        6.06000       -4.25400
H          4.93600        6.54500       -5.21900
C          3.68000        5.59500       -3.73500
H          2.76800        5.70800       -4.30600
C          3.65000        4.96800       -2.47600
H          2.71300        4.59400       -2.08600
C          4.83700        4.79500       -1.73500
H          4.80700        4.28000       -0.78700
C          6.07800        5.25900       -2.22300
C          8.46900        7.00700        0.50400
O          9.67200        7.09700        0.27400
N          7.67700        8.08100        0.50700
H          6.69800        7.92800        0.71000
C          8.06700        9.44000        0.11500
H          8.54500        9.39700       -0.86400
C          6.79600       10.30800        0.00800
H          6.21300       10.22900        0.92800
H          7.11000       11.34800       -0.09100
C          5.90100        9.99100       -1.20800
H          5.19200       10.81000       -1.33000
H          6.51900        9.96400       -2.10600
C          5.08700        8.69600       -1.13700
O          4.99300        7.94800       -0.16800
O          4.43700        8.40100       -2.27700
H          4.06700        7.51800       -2.18100
C          9.09000       10.08700        1.07000
O          9.72600       11.07200        0.70900
N          9.26500        9.53200        2.27100
H          8.69800        8.72700        2.50900
C         10.30700        9.89000        3.24000
H         10.44300       10.97200        3.24200
C          9.82000        9.44700        4.62800
H         10.57100        9.70800        5.37500
H          8.90800        9.99100        4.87300
C          9.52800        7.96700        4.71300
N          8.42000        7.32900        4.14500
C          8.55900        6.02800        4.44200
H          7.85500        5.25300        4.16800
N          9.69400        5.82000        5.13000
H         10.01900        4.92100        5.45900
C         10.32200        7.03200        5.30800
H         11.26200        7.22200        5.80800
C         11.68400        9.27100        2.93200
O         12.65100        9.55000        3.63100
N         11.81600        8.41600        1.92500
H         11.01600        8.15800        1.36300
H         12.72500        8.02900        1.74400
