66
0 1
H          7.54500       13.83500        1.02100
C          8.37300       13.74400        0.32000
H          9.31600       13.92400        0.83300
H          8.25100       14.46600       -0.48600
C          8.37800       12.35100       -0.26300
O          8.25200       12.19000       -1.47300
N          8.53000       11.34600        0.59900
H          8.58600       11.56300        1.58000
C          8.43900        9.93200        0.22000
H          8.73500        9.84500       -0.82600
C          9.44800        9.10600        1.03500
H         10.44000        9.54000        0.90300
H          9.19200        9.18500        2.09200
C          9.53300        7.65200        0.66900
C          9.69400        7.16500       -0.58500
H          9.80400        7.77000       -1.48100
N          9.66000        5.78600       -0.55600
H          9.76800        5.21100       -1.38000
C          9.50800        5.30800        0.72800
C          9.41600        4.01400        1.26200
H          9.45500        3.15000        0.61600
C          9.28400        3.85700        2.65200
H          9.21100        2.86700        3.08200
C          9.24700        4.99000        3.48400
H          9.14900        4.86400        4.55400
C          9.31600        6.28500        2.93300
H          9.26900        7.14900        3.58200
C          9.44800        6.48000        1.54100
C          6.99900        9.39000        0.31400
O          6.11400        9.99200        0.92600
N          6.75900        8.24500       -0.32900
H          7.54600        7.84300       -0.82400
C          5.44400        7.65400       -0.60100
H          4.67800        8.41900       -0.46600
C          5.40200        7.19200       -2.07600
H          6.22000        6.49300       -2.26000
H          4.46700        6.65500       -2.24400
C          5.46200        8.33600       -3.11100
H          5.34400        7.91500       -4.10900
H          4.62100        9.00700       -2.93300
C          6.76400        9.13800       -3.09000
O          7.85500        8.60200       -2.96200
N          6.68500       10.44900       -3.12700
H          7.52400       10.97800       -2.90400
H          5.79800       10.91200       -3.17800
C          5.07200        6.50400        0.35700
O          3.97100        5.97300        0.25600
N          5.97000        6.12200        1.27700
H          6.85000        6.61800        1.27400
C          5.78800        5.14300        2.37000
H          6.75000        5.06900        2.87100
C          4.80000        5.68300        3.42900
H          3.88000        6.01500        2.94500
H          4.53500        4.86600        4.10200
C          5.36500        6.82100        4.30200
H          4.60000        7.12200        5.01700
H          6.22500        6.44900        4.85900
C          5.79400        8.05500        3.51400
O          6.95400        8.41800        3.38000
O          4.80100        8.70300        2.87200
H          5.23400        9.36300        2.30200
C          5.46800        3.68300        1.97400
O          5.73000        2.77300        2.75100
N          4.95100        3.39900        0.78800
H          4.75700        2.43700        0.56800
H          4.64300        4.15400        0.19200
