74
0 1
H          9.15000       11.03300        1.11500
C          8.47600       10.63800        1.87400
H          7.78900       11.41300        2.20600
H          9.05400       10.27500        2.72300
C          7.69400        9.48800        1.28600
O          7.84200        8.35000        1.71600
N          6.88000        9.77500        0.27000
H          6.85200       10.72100       -0.07500
C          6.09400        8.75700       -0.44700
H          5.50000        8.20300        0.28200
C          5.12800        9.45300       -1.41600
H          4.59400        8.68800       -1.98000
H          4.38100        9.98300       -0.82200
C          5.72400       10.42600       -2.39500
C          5.64700       11.77300       -2.29400
H          5.14400       12.30300       -1.49400
N          6.26300       12.36000       -3.38100
H          6.27900       13.35700       -3.53800
C          6.76100       11.41600       -4.25300
C          7.41900       11.51400       -5.48800
H          7.61700       12.48000       -5.92700
C          7.79700       10.33600       -6.15400
H          8.29500       10.38600       -7.11300
C          7.50900        9.08500       -5.57900
H          7.79100        8.17800       -6.09700
C          6.83700        9.00000       -4.34300
H          6.60100        8.02900       -3.93000
C          6.44600       10.16300       -3.64300
C          6.96500        7.71000       -1.16300
O          6.48500        6.62600       -1.48000
N          8.25400        8.00100       -1.35400
H          8.56000        8.93600       -1.11500
C          9.28400        7.11100       -1.90100
H          8.99300        6.81500       -2.90900
C         10.60500        7.89800       -1.97300
H         11.02400        7.97800       -0.97200
H         11.31600        7.34500       -2.58700
C         10.45300        9.29800       -2.51900
N          9.96800       10.39800       -1.80000
C          9.88300       11.40000       -2.68600
H          9.51700       12.39100       -2.45500
N         10.27800       10.98900       -3.90300
H         10.22700       11.53600       -4.74900
C         10.63400        9.66300       -3.81900
H         10.94100        9.01300       -4.62600
C          9.48700        5.82200       -1.09100
O         10.00000        4.84700       -1.63300
N          9.06400        5.80600        0.17800
H          8.68900        6.66600        0.56000
C          9.10500        4.63900        1.07000
H          9.52400        3.79800        0.51600
C         10.05700        4.91700        2.24500
H          9.60900        5.68000        2.88300
H         10.15900        4.00900        2.84000
C         11.42700        5.38100        1.84600
C         12.45600        4.57400        1.50400
H         12.41400        3.49200        1.50800
N         13.53600        5.33800        1.10500
H         14.40600        4.94200        0.78300
C         13.24700        6.68500        1.14900
C         13.98200        7.83300        0.81800
H         14.99000        7.74700        0.44400
C         13.38400        9.09600        0.97700
H         13.93200        9.99200        0.72200
C         12.07100        9.19200        1.47000
H         11.61500       10.16500        1.59000
C         11.34400        8.03100        1.80000
H         10.33700        8.11100        2.17800
C         11.90800        6.74700        1.63900
C          7.70700        4.17500        1.52200
O          7.57000        3.40300        2.46400
N          6.63900        4.62900        0.87500
H          6.74900        5.24100        0.07800
H          5.73100        4.31800        1.17700
