71
0 1
H          7.08600        7.05600        1.40300
C          6.00800        7.20100        1.46200
H          5.79200        8.18000        1.88800
H          5.56600        6.42400        2.08400
C          5.42100        7.11900        0.07400
O          4.60100        6.24900       -0.20000
N          5.83500        8.03200       -0.79900
H          6.53200        8.69900       -0.50300
C          5.45400        8.06000       -2.21400
H          4.45000        7.64900       -2.31600
C          5.40400        9.51500       -2.70600
H          5.28700        9.52000       -3.79100
H          4.51200        9.98100       -2.28600
C          6.57900       10.37300       -2.33400
C          7.70600       10.52700       -3.06500
H          7.89000       10.04800       -4.02000
N          8.59500       11.33600       -2.38600
H          9.51300       11.56700       -2.73700
C          8.09300       11.72900       -1.16400
C          8.61100       12.51000       -0.12100
H          9.59600       12.94500       -0.20200
C          7.83100       12.71700        1.03000
H          8.21300       13.31800        1.84400
C          6.55100       12.14200        1.12200
H          5.95200       12.30800        2.00800
C          6.04100       11.35800        0.06800
H          5.05400       10.92700        0.14700
C          6.79900       11.13100       -1.10300
C          6.39900        7.20600       -3.07600
O          7.62000        7.32900       -3.00100
N          5.82100        6.36300       -3.93200
H          4.81500        6.25600       -3.86400
C          6.53300        5.46500       -4.86100
H          7.46000        5.94400       -5.17700
C          6.89200        4.16300       -4.12000
H          7.36100        3.46700       -4.81600
H          7.63800        4.39700       -3.35900
C          5.71200        3.48000       -3.45000
C          5.44400        3.73000       -2.09000
H          6.09000        4.38800       -1.52400
C          4.31900        3.15600       -1.47000
H          4.10700        3.38300       -0.43600
C          3.45700        2.32500       -2.21500
O          2.33800        1.81800       -1.63600
H          2.42400        1.78400       -0.68100
C          3.73100        2.06100       -3.57400
H          3.06300        1.42600       -4.13600
C          4.86000        2.63600       -4.18900
H          5.06700        2.44100       -5.23400
C          5.72000        5.17800       -6.14300
O          6.09000        4.33900       -6.96000
N          4.58300        5.85700       -6.30800
H          4.35800        6.53500       -5.59500
C          3.46400        5.49400       -7.18600
H          3.37800        4.40700       -7.17800
C          2.17700        6.06600       -6.56100
H          2.18000        7.15200       -6.66700
H          1.31100        5.67700       -7.09900
C          2.03300        5.73300       -5.09100
N          2.73400        6.34900       -4.04500
C          2.40900        5.66400       -2.93600
H          2.80700        5.86200       -1.94700
N          1.56300        4.66300       -3.23200
H          1.25500        3.95100       -2.58200
C          1.32000        4.68600       -4.58700
H          0.72700        3.98400       -5.15600
C          3.64900        5.88500       -8.66500
O          2.70000        6.24500       -9.34900
N          4.86800        5.84600       -9.18400
H          5.63000        5.49000       -8.62400
H          4.99000        6.10500      -10.14800
