70
0 1
H         -3.77000       11.02000        1.61700
C         -3.52800       10.40800        0.74900
H         -4.14700       10.70200       -0.09600
H         -3.70700        9.35900        0.98400
C         -2.07200       10.59200        0.39800
O         -1.30000        9.64300        0.45300
N         -1.70100       11.82000        0.04100
H         -2.41100       12.53600        0.00500
C         -0.32200       12.23200       -0.28000
H          0.25600       11.36000       -0.59100
C         -0.37500       13.22000       -1.45400
H          0.64500       13.43600       -1.77700
H         -0.88400       12.74500       -2.29400
C         -1.06700       14.51300       -1.14200
C         -0.45300       15.64000       -0.71700
H          0.62000       15.74100       -0.58600
N         -1.39700       16.61200       -0.45100
H         -1.16500       17.54100       -0.13200
C         -2.67700       16.14900       -0.67300
C         -3.94500       16.73100       -0.52700
H         -4.04200       17.74700       -0.17400
C         -5.08400       15.97500       -0.85100
H         -6.07000       16.40900       -0.74800
C         -4.94200       14.65700       -1.32000
H         -5.82300       14.08500       -1.58100
C         -3.66400       14.08200       -1.46300
H         -3.56900       13.07700       -1.84700
C         -2.49800       14.81100       -1.13500
C          0.42800       12.86400        0.91100
O          1.58100       13.26600        0.77100
N         -0.23100       13.00500        2.06400
H         -1.15400       12.60400        2.13600
C          0.31500       13.58900        3.29000
H          1.37300       13.32900        3.34100
C          0.15100       15.12500        3.28700
H         -0.64500       15.41100        2.59700
H         -0.14500       15.46400        4.28100
C          1.44100       15.87000        2.90500
H          1.76900       15.56400        1.91300
H          1.23000       16.93900        2.86800
C          2.58700       15.64600        3.89300
O          2.55900       14.90000        4.86400
O          3.70000       16.36000        3.64200
H          4.31900       16.11200        4.33000
C         -0.34500       12.96700        4.52700
O         -1.45400       12.43400        4.44100
N          0.35200       13.01400        5.66700
H          1.20800       13.55900        5.68200
C          0.13400       12.08700        6.78400
H         -0.88300       11.69800        6.72100
C          1.10500       10.89600        6.64400
H          2.09600       11.21300        6.97500
H          0.78100       10.09200        7.30600
C          1.21900       10.35500        5.22700
C          0.15700        9.61700        4.67000
H         -0.70700        9.37100        5.27200
C          0.18600        9.25500        3.31000
H         -0.63900        8.71400        2.87200
C          1.28300        9.62800        2.50400
O          1.28000        9.34100        1.17800
H          0.36900        9.24400        0.85300
C          2.35700       10.34400        3.06700
H          3.18300       10.63700        2.43500
C          2.32500       10.70800        4.42700
H          3.13200       11.29500        4.84400
C          0.28500       12.76400        8.15400
O          0.97600       13.76400        8.30700
N         -0.34000       12.21600        9.18800
H         -0.23500       12.65500       10.08800
H         -0.90400       11.39200        9.06500
