67
0 1
H         10.97500        6.03300       -4.29600
C         11.33600        5.11300       -3.84200
H         12.27500        4.81900       -4.31100
H         10.60100        4.32000       -3.96800
C         11.57800        5.34300       -2.36900
O         12.69500        5.18700       -1.89500
N         10.52400        5.71000       -1.64200
H          9.62700        5.78500       -2.09600
C         10.56900        5.97900       -0.20200
H         11.32200        5.33200        0.25100
C         10.99500        7.44000        0.03400
H         12.00800        7.58000       -0.34800
H         10.33200        8.09800       -0.53100
C         10.97300        7.85800        1.47200
C         10.08300        8.70800        2.03200
H          9.30200        9.23200        1.49600
N         10.26400        8.73300        3.40000
H          9.63900        9.21800        4.03200
C         11.29400        7.90800        3.79200
C         11.82400        7.56500        5.04400
H         11.41900        8.00000        5.94500
C         12.89000        6.65100        5.10700
H         13.31700        6.38000        6.06300
C         13.40400        6.09100        3.92400
H         14.22900        5.39200        3.97600
C         12.85800        6.43600        2.67100
H         13.26400        5.99900        1.76900
C         11.79000        7.35400        2.57400
C          9.22700        5.66300        0.48000
O          8.18100        5.63900       -0.17300
N          9.24400        5.46200        1.80300
H         10.13400        5.54800        2.27300
C          8.05000        5.37100        2.65200
H          7.34500        4.69900        2.16100
C          8.43200        4.73200        4.00100
H          8.84800        3.74200        3.81000
H          9.20200        5.33600        4.48400
C          7.25100        4.57800        4.97200
H          7.59200        3.99500        5.82800
H          6.96300        5.56000        5.34500
S          5.77800        3.77300        4.28100
C          4.69400        3.83600        5.73100
H          5.15000        3.28700        6.55500
H          4.53800        4.87400        6.02900
H          3.73300        3.38300        5.48600
C          7.35000        6.73900        2.78600
O          7.43600        7.42500        3.80300
N          6.66900        7.15500        1.71800
H          6.72900        6.57400        0.88800
C          5.94200        8.43000        1.61300
H          6.54200        9.20800        2.08700
C          5.78500        8.79300        0.12500
H          5.26200        7.98300       -0.38300
H          5.18700        9.70100        0.02800
C          7.14100        9.04300       -0.55300
H          7.57600        9.94200       -0.11600
H          7.81400        8.21400       -0.34600
S          7.08200        9.26600       -2.35100
C          6.71100        7.57300       -2.88500
H          5.72700        7.27500       -2.52300
H          6.71700        7.52900       -3.97400
H          7.46400        6.89000       -2.49200
C          4.58000        8.44100        2.34000
O          3.84500        9.41600        2.26800
N          4.19900        7.37800        3.03900
H          4.81300        6.58600        3.12600
H          3.30800        7.41300        3.50600
