81
0 1
H         12.63300       17.63300      -14.19100
C         12.33200       17.85100      -13.16700
H         11.51300       17.19500      -12.88000
H         12.02200       18.89100      -13.09100
C         13.50900       17.61200      -12.25100
O         14.57900       17.23400      -12.70800
N         13.30700       17.82900      -10.95300
H         12.39300       18.12500      -10.64600
C         14.33000       17.66100       -9.91700
H         15.00700       16.85600      -10.20600
C         15.15100       18.95600       -9.78000
H         15.82000       19.04300      -10.63700
H         14.46900       19.80800       -9.80500
C         15.96000       19.04900       -8.51900
C         15.63100       19.79200       -7.43700
H         14.76200       20.43700       -7.37200
N         16.53400       19.55900       -6.42000
H         16.46700       20.00000       -5.50800
C         17.49000       18.63800       -6.79200
C         18.57900       18.06300       -6.12100
H         18.80800       18.34600       -5.10800
C         19.36600       17.10900       -6.79000
H         20.20900       16.65300       -6.29000
C         19.05700       16.74900       -8.11300
H         19.66400       16.01300       -8.62400
C         17.96400       17.33700       -8.78000
H         17.73900       17.05300       -9.79800
C         17.15400       18.29800       -8.13700
C         13.71000       17.29300       -8.56300
O         12.66800       17.83100       -8.18900
N         14.40600       16.44700       -7.79900
H         15.24700       16.03600       -8.18100
C         14.24700       16.33400       -6.35000
H         14.04800       17.32900       -5.94900
C         13.05600       15.43200       -5.99600
H         12.16100       15.81000       -6.49100
H         13.24600       14.42700       -6.37600
C         12.77000       15.35500       -4.52700
C         13.14300       14.34800       -3.70600
H         13.68300       13.46200       -4.02000
N         12.77100       14.64200       -2.40900
H         13.00900       14.05400       -1.62200
C         12.11300       15.85100       -2.33100
C         11.55300       16.57100       -1.26500
H         11.57100       16.16400       -0.26500
C         10.95700       17.81900       -1.51900
H         10.50100       18.37800       -0.71200
C         10.94600       18.33400       -2.82800
H         10.48100       19.29100       -3.02500
C         11.51900       17.60500       -3.89100
H         11.49500       18.00500       -4.89500
C         12.11100       16.34100       -3.67200
C         15.53500       15.80900       -5.70000
O         16.19900       14.92200       -6.23800
N         15.86200       16.32100       -4.51500
H         15.25300       17.02700       -4.12500
C         16.92800       15.83100       -3.63100
H         17.82600       15.65800       -4.22500
C         17.25600       16.91200       -2.57300
H         17.55700       16.44700       -1.63400
H         18.11700       17.47500       -2.93300
C         16.15400       17.89800       -2.31300
C         14.96100       17.58300       -1.76500
H         14.70000       16.60000       -1.38800
N         14.09500       18.64800       -1.89900
H         13.10600       18.58100       -1.67800
C         14.69700       19.71900       -2.52100
C         14.23600       20.98400       -2.91400
H         13.21300       21.27100       -2.72600
C         15.12600       21.87100       -3.54400
H         14.78900       22.85500       -3.84200
C         16.46000       21.48500       -3.76800
H         17.14700       22.18200       -4.23200
C         16.90800       20.20600       -3.38200
H         17.93700       19.92500       -3.54900
C         16.03500       19.28400       -2.76300
C         16.52900       14.47700       -3.01000
O         16.03400       14.38500       -1.89000
N         16.70300       13.39400       -3.75300
H         17.00700       13.49900       -4.71200
H         16.45600       12.49800       -3.37000
