78
0 1
H         17.45400        6.15700       -0.21800
C         17.09200        5.62900        0.66200
H         17.93700        5.28500        1.25600
H         16.48600        4.77600        0.36200
C         16.25200        6.56400        1.49800
O         16.57200        6.81300        2.65600
N         15.17700        7.08800        0.91100
H         14.95100        6.80000       -0.02600
C         14.20200        7.90300        1.64000
H         14.75600        8.57900        2.29200
C         13.38700        8.77700        0.67700
H         14.06100        9.46300        0.16100
H         12.92000        8.13600       -0.07300
C         12.30500        9.56900        1.35100
C         12.46400       10.78000        1.93000
H         13.38400       11.34700        1.93100
N         11.29700       11.14700        2.57200
H         11.21700       11.96000        3.18000
C         10.31300       10.19500        2.41700
C          8.99200       10.10300        2.87500
H          8.55500       10.91300        3.43700
C          8.25100        8.94300        2.59600
H          7.23200        8.85000        2.94700
C          8.84000        7.89500        1.86500
H          8.27100        6.99800        1.66200
C         10.16500        8.00400        1.40000
H         10.61000        7.18600        0.85200
C         10.93300        9.16200        1.65400
C         13.28900        7.05400        2.54000
O         12.91800        5.93200        2.20200
N         12.90200        7.64400        3.67200
H         13.22800        8.58700        3.80000
C         11.94400        7.11500        4.65800
H         11.09600        6.66400        4.13900
C         12.65000        6.04000        5.50100
H         11.94900        5.66900        6.25000
H         12.90100        5.19700        4.85500
C         13.89800        6.49300        6.20200
C         15.15200        6.37000        5.71100
H         15.40200        5.90700        4.76100
N         16.05400        6.94500        6.58300
H         17.04900        6.96800        6.40700
C         15.42200        7.48600        7.68200
C         15.88600        8.19300        8.80100
H         16.94000        8.39200        8.92200
C         14.96000        8.63600        9.76100
H         15.30000        9.17900       10.63300
C         13.59000        8.36600        9.59100
H         12.88200        8.70100       10.33600
C         13.13500        7.65700        8.46100
H         12.08000        7.45300        8.34300
C         14.03800        7.20400        7.47300
C         11.39600        8.22300        5.57800
O         10.32900        8.08700        6.17300
N         12.13600        9.32800        5.70600
H         13.02200        9.34800        5.23200
C         11.83400       10.49800        6.52600
H         11.47300       10.15600        7.49700
C         13.14600       11.27300        6.77200
H         12.90900       12.25800        7.17500
H         13.70200       10.74400        7.54800
C         14.07000       11.42300        5.56800
C         14.97500       10.39100        5.24300
H         15.03600        9.50800        5.86400
C         15.80900       10.50600        4.11500
H         16.49800        9.71300        3.85500
C         15.76800       11.67500        3.32800
O         16.56700       11.78000        2.23500
H         16.61500       12.67800        1.90600
C         14.88200       12.72200        3.66500
H         14.84600       13.61800        3.06400
C         14.03000       12.58800        4.77800
H         13.33800       13.38200        5.02900
C         10.70900       11.34700        5.90300
O         10.93100       12.34800        5.22600
N          9.46500       10.93600        6.10400
H          9.31000       10.04300        6.55400
H          8.70800       11.46300        5.70500
