66
0 1
H         10.55000       12.19800       -0.01700
C          9.87900       11.52300        0.50900
H          9.54600       11.99300        1.43400
H         10.39300       10.59000        0.73800
C          8.67700       11.23000       -0.35500
O          7.55100       11.47300        0.06000
N          8.91900       10.70900       -1.55800
H          9.87800       10.52100       -1.79600
C          7.89000       10.33800       -2.54400
H          8.40100       10.19400       -3.49500
C          7.26100        8.97600       -2.18600
H          6.66000        9.08800       -1.28300
H          6.59300        8.67300       -2.99300
C          8.24100        7.86900       -1.93600
C          8.73500        7.02600       -2.87100
H          8.45900        7.03500       -3.91900
N          9.64800        6.16800       -2.28700
H         10.13800        5.44600       -2.79500
C          9.79400        6.42200       -0.94000
C         10.59000        5.84700        0.06200
H         11.26000        5.03400       -0.17200
C         10.49700        6.34000        1.37500
H         11.09900        5.90600        2.16100
C          9.60900        7.39000        1.66800
H          9.53000        7.75800        2.68200
C          8.81400        7.95900        0.65300
H          8.12300        8.75400        0.89400
C          8.89300        7.49800       -0.68000
C          6.88200       11.47500       -2.80800
O          7.27000       12.52100       -3.32300
N          5.60900       11.30300       -2.43600
H          5.37800       10.45700       -1.92500
C          4.52900       12.29800       -2.54900
H          4.43200       12.61300       -3.58800
C          3.22200       11.62300       -2.10200
H          2.40200       12.34100       -2.15700
H          2.99500       10.80000       -2.77900
C          3.31400       11.07800       -0.69700
N          3.95800        9.89000       -0.34600
C          3.98800        9.87300        0.99500
H          4.45400        9.09700        1.58900
N          3.41300       10.98100        1.49200
H          3.42700       11.25600        2.47300
C          2.98600       11.75800        0.43900
H          2.55500       12.74900        0.48800
C          4.75800       13.57500       -1.71800
O          4.06000       14.56300       -1.92200
N          5.72000       13.56300       -0.79300
H          6.21700       12.69100       -0.65000
C          6.15400       14.71200        0.00800
H          5.76400       15.61600       -0.46300
C          5.53000       14.64000        1.41700
H          5.78000       15.55300        1.96000
H          4.44500       14.61000        1.30500
C          5.97000       13.42500        2.25300
H          5.83900       12.51300        1.67500
H          7.02300       13.52400        2.51700
C          5.15100       13.28400        3.53100
O          4.38700       12.35800        3.78000
O          5.26300       14.29800        4.41100
H          4.69200       14.07200        5.14500
C          7.68900       14.87300       -0.00800
O          8.29400       15.36200        0.93900
N          8.35900       14.45100       -1.07500
H          9.35600       14.57600       -1.09200
H          7.86500       14.03100       -1.85200
