78
0 1
H         15.99100        0.47500       -1.38600
C         15.92400        1.24700       -2.14900
H         16.21300        0.83100       -3.11400
H         16.58400        2.07600       -1.89900
C         14.50200        1.74600       -2.23600
O         13.87500        1.64900       -3.28500
N         13.98700        2.29000       -1.13400
H         14.57000        2.35500       -0.31500
C         12.63200        2.85300       -1.06000
H         11.97200        2.19600       -1.62500
C         12.14000        2.83000        0.39900
H         12.44500        1.88700        0.85400
H         12.62500        3.63000        0.96000
C         10.65400        2.94500        0.56500
C          9.79100        1.90500        0.48800
H         10.07800        0.87400        0.32100
N          8.49500        2.36100        0.61500
H          7.68400        1.76300        0.55500
C          8.45200        3.72600        0.79300
C          7.39400        4.63100        0.95500
H          6.37200        4.28500        0.94900
C          7.68400        5.99500        1.12500
H          6.88400        6.71200        1.24800
C          9.02100        6.42800        1.13500
H          9.23800        7.48000        1.26700
C         10.07600        5.50900        0.96100
H         11.09700        5.85900        0.96500
C          9.82200        4.13200        0.77800
C         12.56700        4.23400       -1.74200
O         12.51100        5.27700       -1.09400
N         12.64200        4.24100       -3.07500
H         12.74300        3.34400       -3.53700
C         12.83100        5.44800       -3.89400
H         13.69600        5.98200       -3.49900
C         13.16400        5.02800       -5.33400
H         13.53400        5.90500       -5.86800
H         13.97900        4.30300       -5.31500
C         11.99900        4.45000       -6.11700
C         11.14000        5.31100       -6.82900
H         11.31000        6.38000       -6.80600
C         10.05600        4.78900       -7.55900
H          9.39700        5.45400       -8.09300
C          9.83100        3.39600       -7.58000
O          8.79200        2.88700       -8.29400
H          8.47200        3.51900       -8.93800
C         10.69200        2.53300       -6.87000
H         10.50700        1.47000       -6.88700
C         11.77300        3.05900       -6.13600
H         12.42900        2.39200       -5.59200
C         11.65700        6.44500       -3.86500
O         11.80700        7.57400       -4.32400
N         10.50400        6.05600       -3.31000
H         10.43100        5.10000       -3.00400
C          9.34700        6.93300       -3.08900
H          9.13900        7.46400       -4.01800
C          8.12300        6.07100       -2.74700
H          8.27000        5.64200       -1.75500
H          7.24400        6.71600       -2.69300
C          7.83200        4.94400       -3.69500
C          7.03900        5.02300       -4.78800
H          6.50700        5.91400       -5.09900
N          7.02500        3.80500       -5.44000
H          6.51700        3.63100       -6.29500
C          7.81300        2.87500       -4.79800
C          8.11300        1.53100       -5.06100
H          7.69300        1.04000       -5.92600
C          8.98500        0.84500       -4.19900
H          9.23500       -0.19000       -4.39200
C          9.53500        1.50700       -3.08700
H         10.19700        0.96900       -2.42500
C          9.22000        2.85700       -2.83100
H          9.62400        3.35300       -1.96500
C          8.35300        3.57800       -3.68100
C          9.57300        8.00900       -2.00700
O          8.74200        8.89200       -1.82900
N         10.67600        7.97200       -1.26700
H         10.81300        8.69100       -0.57900
H         11.34200        7.22400       -1.39200
