68
0 1
H          5.83600       11.25300       -6.59800
C          4.79800       10.95100       -6.72700
H          4.67700       10.47500       -7.70000
H          4.15100       11.82300       -6.66400
C          4.42100        9.96600       -5.64600
O          3.98500        8.86000       -5.94600
N          4.57300       10.37900       -4.38900
H          4.98700       11.28800       -4.24000
C          4.36200        9.54200       -3.19700
H          3.88100        8.61900       -3.50600
C          5.73600        9.14500       -2.62900
H          5.60000        8.54800       -1.72600
H          6.22900        8.50000       -3.35800
C          6.66200       10.28900       -2.33200
C          6.74300       10.94900       -1.15600
H          6.15600       10.71000       -0.27500
N          7.65400       11.98200       -1.26200
H          7.87600       12.60700       -0.50100
C          8.20000       12.04900       -2.52700
C          9.13000       12.91100       -3.12500
H          9.56800       13.71900       -2.56000
C          9.48800       12.70300       -4.46800
H         10.20900       13.35400       -4.94500
C          8.91700       11.63900       -5.19000
H          9.20700       11.47400       -6.21900
C          7.98300       10.77900       -4.57800
H          7.56600        9.95400       -5.13500
C          7.59400       10.96700       -3.23300
C          3.40000       10.14900       -2.14300
O          3.71000       10.12800       -0.95100
N          2.20800       10.66800       -2.51700
C          1.62200       10.66400       -3.85200
H          1.75600        9.70200       -4.34700
H          2.07000       11.46100       -4.44700
C          0.13500       10.95400       -3.66000
H         -0.40200       10.02400       -3.46500
H         -0.29000       11.47200       -4.52100
C          0.13000       11.83000       -2.40900
H         -0.83900       11.81600       -1.90700
H          0.39900       12.85300       -2.67900
C          1.24200       11.21900       -1.55000
H          1.71500       12.00400       -0.95800
C          0.67400       10.16800       -0.57600
O          0.14900       10.51900        0.47300
N          0.79000        8.88200       -0.91600
H          1.22900        8.67600       -1.79900
C          0.46800        7.72500       -0.07300
H         -0.44100        7.93800        0.49100
C          0.19400        6.52800       -1.00500
H          0.13100        5.61000       -0.42000
H         -0.78200        6.67600       -1.46800
C          1.23000        6.35600       -2.10600
C          2.46700        5.74300       -1.82600
H          2.65900        5.33600       -0.84100
C          3.46100        5.67500       -2.82100
H          4.42000        5.22400       -2.61300
C          3.22100        6.22300       -4.09800
O          4.21400        6.25700       -5.02200
H          4.13600        7.04500       -5.58200
C          1.97700        6.82500       -4.38200
H          1.80100        7.24300       -5.36300
C          0.98200        6.88500       -3.38900
H          0.02800        7.34500       -3.61000
C          1.56100        7.39100        0.96800
O          1.43200        6.43000        1.71600
N          2.66400        8.12900        1.03500
H          3.35300        7.89100        1.72700
H          2.79400        8.91900        0.41800
