68
0 1
H          8.11400       -0.64000       -5.22900
C          7.86900        0.09000       -5.99800
H          7.34800       -0.39400       -6.82100
H          8.78400        0.55400       -6.36500
C          6.98300        1.16000       -5.40400
O          7.34800        2.32800       -5.39600
N          5.81400        0.76100       -4.90900
H          5.60400       -0.22300       -4.92300
C          4.88000        1.64800       -4.20700
H          4.77600        2.57100       -4.77500
C          3.50700        0.96800       -4.16100
H          3.15100        0.83300       -5.18300
H          3.61900       -0.02500       -3.72100
C          2.45100        1.70000       -3.39400
C          2.11400        1.45400       -2.10900
H          2.57700        0.70000       -1.48100
N          1.09700        2.30400       -1.72400
H          0.72300        2.33000       -0.77600
C          0.72800        3.14900       -2.74800
C         -0.23000        4.16800       -2.84900
H         -0.87500        4.39300       -2.01200
C         -0.33200        4.89400       -4.04700
H         -1.06500        5.68400       -4.14300
C          0.52400        4.59400       -5.12300
H          0.44100        5.15400       -6.04400
C          1.47700        3.56200       -5.01300
H          2.11800        3.33200       -5.85100
C          1.60200        2.80900       -3.82400
C          5.38800        1.96700       -2.78400
O          5.47100        1.04700       -1.96700
N          5.71900        3.23000       -2.44500
C          5.68500        4.40900       -3.30300
H          4.67200        4.61700       -3.65000
H          6.35200        4.26500       -4.15300
C          6.20000        5.57000       -2.45200
H          5.36600        6.06500       -1.95700
H          6.77100        6.28500       -3.04500
C          7.07000        4.87600       -1.40500
H          7.17300        5.47600       -0.49900
H          8.05100        4.66200       -1.83200
C          6.32700        3.56100       -1.15200
H          7.04800        2.79300       -0.86600
C          5.30900        3.70700       -0.00900
O          5.67200        3.57700        1.15800
N          4.03900        3.99400       -0.31500
H          3.79300        4.07100       -1.28900
C          3.00200        4.30700        0.67600
H          3.48800        4.80600        1.51600
C          1.99800        5.31300        0.08600
H          1.33500        4.79400       -0.60100
H          1.37900        5.70200        0.89500
C          2.63200        6.48400       -0.64700
C          3.35700        7.45500        0.07100
H          3.44700        7.37400        1.14600
C          3.96800        8.52800       -0.60700
H          4.52500        9.26800       -0.05400
C          3.85100        8.63100       -2.01000
O          4.44300        9.65700       -2.67500
H          4.84700       10.28800       -2.07900
C          3.12600        7.65900       -2.72900
H          3.04100        7.74800       -3.80200
C          2.51900        6.58600       -2.04800
H          1.96500        5.84500       -2.60700
C          2.34900        3.03400        1.25000
O          1.14900        2.80400        1.12100
N          3.14300        2.14800        1.83500
H          2.74500        1.29900        2.19800
H          4.13600        2.34000        1.89200
