78
0 1
H         17.80800        2.22900       -0.52800
C         17.59900        3.02400       -1.24000
H         18.13900        2.83800       -2.16700
H         17.90400        3.98500       -0.82800
C         16.11800        3.05800       -1.53600
O         15.71100        2.89100       -2.67900
N         15.30500        3.26900       -0.50300
H         15.71400        3.45000        0.39900
C         13.86200        3.47400       -0.65800
H         13.49600        2.78200       -1.41800
C         13.14600        3.14500        0.65800
H         13.39100        2.12100        0.94200
H         13.53200        3.80300        1.43900
C         11.65300        3.28800        0.63100
C         10.77400        2.28000        0.43300
H         11.04600        1.24100        0.28700
N          9.48500        2.77500        0.46000
H          8.66100        2.19800        0.35400
C          9.46800        4.13600        0.67100
C          8.43100        5.07500        0.76200
H          7.40000        4.76800        0.66600
C          8.75100        6.42800        0.95900
H          7.96300        7.16600        1.02400
C         10.09700        6.82200        1.06500
H         10.34000        7.86400        1.21800
C         11.12900        5.86700        0.98200
H         12.15800        6.18600        1.07600
C         10.84400        4.49900        0.78000
C         13.54800        4.90100       -1.13400
O         14.14200        5.86300       -0.65200
N         12.58000        5.03600       -2.04500
H         12.19200        4.19600       -2.44200
C         12.19300        6.31400       -2.66600
H         12.47400        7.13300       -2.00300
C         12.98300        6.46400       -3.97900
H         12.78600        7.45100       -4.40000
H         14.05000        6.42300       -3.75600
C         12.65300        5.40900       -5.02500
C         11.58300        5.60900       -5.92000
H         11.01200        6.52700       -5.88100
C         11.25200        4.61900       -6.86500
H         10.42600        4.77500       -7.54300
C         12.00200        3.42500       -6.92200
O         11.69400        2.47100       -7.83800
H         11.02600        2.77600       -8.45300
C         13.07400        3.22400       -6.02900
H         13.64700        2.31000       -6.08400
C         13.40000        4.21500       -5.08500
H         14.23300        4.06100       -4.41000
C         10.67600        6.44900       -2.91700
O         10.23900        7.39000       -3.57700
N          9.86500        5.49300       -2.44800
H         10.25300        4.82800       -1.79800
C          8.47900        5.27400       -2.89500
H          8.45100        5.49100       -3.96400
C          8.13200        3.78300       -2.73600
H          9.03700        3.19300       -2.89100
H          7.79400        3.59100       -1.71800
C          7.10900        3.26200       -3.69800
C          5.76800        3.32400       -3.53500
H          5.27400        3.76300       -2.67400
N          5.13800        2.77500       -4.63400
H          4.13500        2.72600       -4.73000
C          6.04700        2.32700       -5.56800
C          5.90700        1.70300       -6.81600
H          4.92600        1.48800       -7.21200
C          7.06000        1.34900       -7.53700
H          6.97200        0.85500       -8.49500
C          8.33200        1.63000       -7.00400
H          9.21700        1.33900       -7.55200
C          8.46100        2.27100       -5.75600
H          9.44400        2.47800       -5.35900
C          7.32200        2.63200       -5.00200
C          7.44500        6.22700       -2.24800
O          6.39900        5.81800       -1.75200
N          7.72900        7.52000       -2.19800
H          7.06900        8.14500       -1.76800
H          8.59100        7.85000       -2.61200
