67
0 1
H          5.35300       -1.26100        0.12300
C          4.65400       -0.86100       -0.60800
H          3.64000       -0.89600       -0.21200
H          4.70800       -1.44500       -1.52600
C          5.01900        0.57200       -0.91800
O          5.31200        0.89900       -2.06000
N          5.01000        1.42400        0.10400
H          4.78900        1.07600        1.02500
C          5.33200        2.85000       -0.00600
H          6.06400        2.98400       -0.80500
C          4.06600        3.63800       -0.38500
H          3.74200        3.33100       -1.38100
H          3.27100        3.38800        0.31900
C          4.25500        5.12300       -0.38300
C          3.74200        5.97800        0.53000
H          3.09200        5.69600        1.35100
N          4.24700        7.24400        0.31100
H          4.09200        8.01700        0.94500
C          5.10900        7.27000       -0.76300
C          5.89200        8.28000       -1.33900
H          5.87100        9.28100       -0.93600
C          6.70200        7.96900       -2.44600
H          7.30700        8.73700       -2.90800
C          6.72100        6.65700       -2.95400
H          7.34000        6.42400       -3.80900
C          5.93800        5.64700       -2.36000
H          5.96000        4.64400       -2.76100
C          5.11100        5.92900       -1.25000
C          5.96100        3.39200        1.28800
O          5.70600        2.87000        2.37400
N          6.76000        4.46100        1.18200
H          6.86900        4.87700        0.26900
C          7.28400        5.21200        2.32700
H          7.61800        4.48700        3.07000
C          8.51700        6.02700        1.88700
H          9.27100        5.32600        1.52400
H          8.23800        6.67400        1.05300
C          9.16900        6.90300        2.97800
H         10.12300        7.27100        2.59900
H          8.54600        7.77600        3.16900
C          9.39200        6.18300        4.30700
O          8.46900        5.83800        5.02600
N         10.62100        5.93000        4.69800
H         11.40800        6.20800        4.14200
H         10.71200        5.46600        5.58500
C          6.17700        6.05800        2.98800
O          6.08000        7.26900        2.79500
N          5.30900        5.39200        3.75100
H          5.41200        4.38500        3.79100
C          4.17200        6.00400        4.45000
H          3.73000        6.73700        3.77500
C          3.12600        4.90500        4.72000
H          3.10900        4.20500        3.88300
H          3.41300        4.35200        5.61600
C          1.70200        5.44600        4.89500
H          1.06300        4.62300        5.21700
H          1.68800        6.20000        5.68100
S          0.98800        6.15200        3.38400
C         -0.56900        6.78700        4.05800
H         -1.14400        7.26000        3.26200
H         -1.14800        5.96600        4.48200
H         -0.35800        7.52200        4.83500
C          4.56500        6.77400        5.73300
O          3.71800        7.35900        6.39700
N          5.83200        6.79300        6.12900
H          6.06300        7.30800        6.96100
H          6.55200        6.33400        5.58600
