74
0 1
H          3.86500        6.44400        6.49000
C          3.24700        7.02900        7.16900
H          3.57500        6.87500        8.19500
H          2.20700        6.72200        7.06800
C          3.36400        8.49300        6.81900
O          2.36400        9.13700        6.53400
N          4.58900        9.01400        6.85600
H          5.34700        8.40000        7.11300
C          4.95100       10.41700        6.57600
H          4.06500       11.04800        6.66900
C          5.97200       10.85000        7.64200
H          6.32400       11.85800        7.41700
H          5.45900       10.90000        8.60400
C          7.16300        9.94300        7.78600
C          7.31200        9.00900        8.75400
H          6.60600        8.83400        9.55700
N          8.48400        8.30800        8.55000
H          8.80700        7.56900        9.15800
C          9.15500        8.75500        7.43300
C         10.35400        8.36100        6.82100
H         10.93500        7.54800        7.22800
C         10.79200        9.04400        5.67400
H         11.71500        8.75800        5.18900
C         10.03400       10.11400        5.16600
H         10.38300       10.65100        4.29400
C          8.83300       10.50200        5.79200
H          8.27800       11.34200        5.40100
C          8.34900        9.82300        6.93300
C          5.50900       10.64500        5.15600
O          5.88200       11.76400        4.80800
N          5.59000        9.58600        4.34500
H          5.14400        8.74100        4.67900
C          6.31700        9.43200        3.06700
H          7.35000        9.74700        3.22100
C          6.31500        7.92700        2.74400
H          6.84500        7.74100        1.80900
H          6.85100        7.39700        3.53300
C          4.91800        7.36100        2.65700
N          4.12200        7.01600        3.75400
C          2.92500        6.68300        3.24900
H          2.07500        6.36900        3.84100
N          2.92500        6.81800        1.91100
H          2.13500        6.65200        1.30400
C          4.17200        7.25500        1.52100
H          4.49700        7.52100        0.52200
C          5.79000       10.26400        1.87400
O          5.91900        9.86100        0.72000
N          5.17100       11.40900        2.14600
H          5.11600       11.66100        3.12300
C          4.44500       12.26000        1.19700
H          4.88800       12.16600        0.20400
C          2.99400       11.75800        1.14100
H          2.41300       12.41600        0.49200
H          2.98600       10.76600        0.68800
C          2.31800       11.67800        2.47800
C          2.29300       10.58000        3.26700
H          2.73000        9.62200        3.01000
N          1.69200       10.88800        4.46900
H          1.64000       10.23100        5.24800
C          1.29500       12.20500        4.52000
C          0.67700       12.97900        5.51200
H          0.41000       12.53500        6.45900
C          0.41200       14.33500        5.25400
H         -0.06700       14.94700        6.00500
C          0.77100       14.89400        4.01400
H          0.56700       15.93800        3.81700
C          1.39700       14.10700        3.02700
H          1.67200       14.55100        2.08000
C          1.67600       12.74100        3.25300
C          4.49500       13.75300        1.57500
O          4.07900       14.60300        0.79800
N          5.00200       14.11700        2.75000
H          5.34300       13.42600        3.40100
H          5.00600       15.09700        2.97900
