67
0 1
H         14.17800        4.02200       -8.11200
C         14.47300        4.93000       -7.58800
H         14.81000        5.67300       -8.30900
H         15.27300        4.70500       -6.88500
C         13.28300        5.47700       -6.83700
O         12.81900        6.57200       -7.13200
N         12.79100        4.72000       -5.85600
H         13.27900        3.87200       -5.62300
C         11.58500        5.05300       -5.08100
H         10.73700        5.12600       -5.76400
C         11.31100        3.91700       -4.08300
H         10.36900        4.12800       -3.57500
H         11.17500        2.98700       -4.63800
C         12.36800        3.70800       -3.03600
C         13.36300        2.79300       -3.09300
H         13.50100        2.07400       -3.89000
N         14.18800        2.93400       -1.99400
H         15.00900        2.36900       -1.83400
C         13.76400        3.95100       -1.16700
C         14.26600        4.48100        0.03200
H         15.16400        4.07800        0.47300
C         13.58100        5.54200        0.64800
H         13.95200        5.96400        1.57200
C         12.40700        6.05000        0.06500
H         11.88000        6.86400        0.54500
C         11.91200        5.50900       -1.13700
H         11.01000        5.91300       -1.57300
C         12.58400        4.45200       -1.79300
C         11.68200        6.40300       -4.35200
O         10.67100        7.07700       -4.16800
N         12.89300        6.83000       -3.98000
H         13.68600        6.22500       -4.16100
C         13.15000        8.10200       -3.30000
H         12.45700        8.16800       -2.46000
C         14.57800        8.09500       -2.71600
H         14.62600        8.87700       -1.95700
H         14.75500        7.14500       -2.20900
C         15.71900        8.35900       -3.72000
H         15.57700        9.34000       -4.17400
H         16.65900        8.39400       -3.17100
C         15.86400        7.31000       -4.82100
O         15.57900        6.13300       -4.66200
N         16.30800        7.69500       -5.99500
H         16.46800        8.67300       -6.18400
H         16.39100        6.99000       -6.70200
C         12.88700        9.33800       -4.18100
O         12.86200       10.45100       -3.66500
N         12.68600        9.16400       -5.49500
H         12.72400        8.22300       -5.87100
C         12.27700       10.24500       -6.40300
H         12.79600       11.15700       -6.10500
C         12.68700        9.91900       -7.85000
H         12.07900        9.08800       -8.21300
H         12.47100       10.78400       -8.47800
C         14.16700        9.54500       -8.02700
H         14.32200        8.56100       -7.59000
H         14.36600        9.45400       -9.09500
S         15.40200       10.67100       -7.31000
C         15.03500       12.19800       -8.21600
H         14.02800       12.53900       -7.97400
H         15.74900       12.97000       -7.92800
H         15.11100       12.01800       -9.28800
C         10.77000       10.56000       -6.33600
O         10.30600       11.49400       -6.97900
N          9.97000        9.80000       -5.59400
H         10.34400        9.02000       -5.07200
H          8.99200       10.02900       -5.56000
