66
0 1
H          3.98000        5.72100        3.74300
C          3.26600        5.21200        3.09700
H          2.43800        5.88200        2.87100
H          2.89700        4.31800        3.59400
C          3.95900        4.82200        1.81300
O          5.14800        5.07500        1.64800
N          3.22200        4.21000        0.88800
H          2.24500        4.04900        1.07600
C          3.74500        3.83900       -0.43000
H          4.73100        3.39200       -0.29500
C          2.85400        2.76900       -1.07500
H          2.76200        1.92700       -0.38900
H          1.85500        3.17700       -1.23600
C          3.38700        2.25100       -2.37700
C          3.03700        2.70800       -3.60000
H          2.31400        3.49600       -3.78100
N          3.78700        2.07300       -4.56800
H          3.77100        2.35100       -5.54800
C          4.66000        1.16200       -4.01600
C          5.63000        0.31300       -4.56800
H          5.77500        0.27600       -5.63700
C          6.40500       -0.48500       -3.71000
H          7.15500       -1.15000       -4.11800
C          6.20600       -0.41800       -2.31900
H          6.80400       -1.03600       -1.66300
C          5.23300        0.44400       -1.77500
H          5.09000        0.48500       -0.70600
C          4.43400        1.25700       -2.61000
C          3.92700        5.07800       -1.32800
O          3.06800        5.41700       -2.13800
N          5.06000        5.76900       -1.17900
H          5.66100        5.51000       -0.40600
C          5.35700        7.00100       -1.92900
H          4.49600        7.66400       -1.84300
C          6.58600        7.71200       -1.32400
H          7.47400        7.12200       -1.55300
H          6.69700        8.67900       -1.81800
C          6.55900        7.95200        0.19900
H          6.58600        6.99800        0.72200
H          7.46400        8.49000        0.47800
C          5.36400        8.75600        0.71000
O          4.49900        9.28000        0.02600
O          5.30400        8.89400        2.04700
H          4.52400        9.42700        2.20300
C          5.57600        6.77600       -3.44100
O          5.56300        7.73200       -4.21300
N          5.78600        5.53100       -3.88500
H          5.72400        4.78100       -3.21600
C          5.99000        5.16600       -5.29700
H          6.50300        5.98500       -5.79900
C          6.90200        3.93000       -5.40000
H          6.39900        3.08600       -4.93200
H          7.05900        3.68800       -6.45200
C          8.27700        4.08400       -4.73100
H          8.15300        4.35300       -3.68200
H          8.75000        3.10200       -4.75500
S          9.43400        5.24500       -5.51600
C          9.06500        6.79900       -4.65300
H          9.13100        6.64700       -3.57600
H          9.79000        7.55500       -4.95200
H          8.06900        7.15100       -4.91300
C          4.65300        4.99500       -6.04500
O          4.37100        3.96200       -6.64700
N          3.77600        5.98600       -5.97200
H          4.01800        6.82400       -5.45900
H          2.88800        5.88700       -6.43400
