68
0 1
H         -0.44500       14.65300        2.87700
C         -0.74200       13.86300        3.56500
H         -1.78700       13.60800        3.40000
H         -0.59600       14.19700        4.59000
C          0.11600       12.64500        3.31000
O          0.97500       12.66900        2.43800
N         -0.12400       11.57800        4.06900
H         -0.87800       11.62000        4.73800
C          0.58200       10.29900        3.94200
H          0.83000       10.14600        2.89100
C          1.89900       10.35600        4.73400
H          2.43700       11.26500        4.46100
H          1.67200       10.41200        5.80000
C          2.81800        9.20000        4.48500
C          3.07700        8.19300        5.34800
H          2.65300        8.10500        6.34400
N          3.91000        7.27000        4.75000
H          4.21400        6.42400        5.20900
C          4.23600        7.63900        3.46200
C          5.01700        7.04200        2.46200
H          5.51600        6.10300        2.64600
C          5.14200        7.68600        1.21900
H          5.74300        7.24400        0.43600
C          4.48600        8.91000        0.99400
H          4.58600        9.40400        0.03700
C          3.70100        9.49900        2.00600
H          3.20400       10.44300        1.82200
C          3.55800        8.87900        3.26600
C         -0.30400        9.11700        4.37800
O         -1.36000        9.32000        4.98000
N          0.11800        7.89000        4.06100
H          1.03600        7.81400        3.64600
C         -0.56800        6.63800        4.40100
H         -1.63900        6.80300        4.27500
C         -0.11600        5.56400        3.39000
H         -0.31600        5.93100        2.38200
H          0.96400        5.44000        3.49000
C         -0.77400        4.17800        3.54300
H         -0.57000        3.78100        4.53700
C         -2.28800        4.22400        3.32200
H         -2.51200        4.62300        2.33300
H         -2.70100        3.21800        3.40400
H         -2.77100        4.84500        4.07500
C         -0.17600        3.21300        2.52000
H         -0.37200        3.56700        1.50800
H          0.90100        3.13600        2.67200
H         -0.61700        2.22400        2.64600
C         -0.32800        6.20600        5.86300
O          0.74500        6.41700        6.42600
N         -1.32300        5.55600        6.46700
H         -2.18000        5.41600        5.94600
C         -1.33600        5.10600        7.86200
H         -0.31700        4.85200        8.15700
C         -1.83400        6.23800        8.79000
H         -1.86100        5.85400        9.81000
H         -1.10400        7.04900        8.77500
C         -3.23000        6.81100        8.45700
H         -3.95300        6.00500        8.33900
H         -3.55300        7.44300        9.28400
C         -3.21300        7.66500        7.19300
O         -3.66800        7.31300        6.11300
O         -2.52600        8.81800        7.30900
H         -2.34400        9.11800        6.40100
C         -2.19100        3.83600        8.01400
O         -3.08100        3.56900        7.21600
N         -1.95200        3.04100        9.04900
H         -2.51600        2.21200        9.14600
H         -1.22100        3.26000        9.70500
