66
0 1
H         12.39300       -0.08000       -4.79600
C         11.53600        0.17900       -4.17700
H         11.87900        0.49400       -3.19300
H         10.88400       -0.68800       -4.08000
C         10.77300        1.30500       -4.83300
O         11.14200        1.74700       -5.91700
N          9.72900        1.78800       -4.15700
H          9.55300        1.40400       -3.24300
C          8.75900        2.78200       -4.66000
H          8.23500        2.36000       -5.51800
C          7.73500        3.06700       -3.54600
H          6.89800        3.61300       -3.98300
H          7.34200        2.12300       -3.16500
C          8.27200        3.87200       -2.39600
C          8.21400        5.22100       -2.30900
H          7.74900        5.86600       -3.04700
N          8.92900        5.65400       -1.21000
H          9.12600        6.63500       -1.02300
C          9.44700        4.59400       -0.49800
C         10.22200        4.51700        0.66800
H         10.51000        5.41800        1.18900
C         10.61000        3.25400        1.14800
H         11.20200        3.17500        2.05000
C         10.22000        2.09300        0.45700
H         10.51200        1.12300        0.83800
C          9.44200        2.18200       -0.71500
H          9.13100        1.27900       -1.21600
C          9.03900        3.43600       -1.22800
C          9.37700        4.11700       -5.12100
O          8.73400        4.88700       -5.82800
N         10.61200        4.39300       -4.70300
H         11.04100        3.71500       -4.09200
C         11.36600        5.62300       -4.95200
H         10.91200        6.15200       -5.79100
C         11.20100        6.48500       -3.68800
H         10.12800        6.59600       -3.54400
H         11.60200        5.94500       -2.83000
C         11.78000        7.90600       -3.68500
H         12.86500        7.87200       -3.60900
H         11.50800        8.41100       -4.61200
C         11.23700        8.72000       -2.50900
O         10.47200        8.31000       -1.64000
O         11.66300        9.99600       -2.45900
H         11.25000       10.37700       -1.68400
C         12.82000        5.30200       -5.36400
O         13.71500        6.13000       -5.22300
N         13.06000        4.06900       -5.83800
H         12.26900        3.44300       -5.91900
C         14.39300        3.50900       -6.10800
H         15.10800        4.32600       -6.22000
C         14.85300        2.62800       -4.92800
H         14.26900        1.70700       -4.90900
H         15.89400        2.35500       -5.10600
C         14.77000        3.29100       -3.54500
H         15.50300        2.81000       -2.89800
H         15.05100        4.34100       -3.63800
S         13.15300        3.16600       -2.72300
C         13.47800        4.20800       -1.27800
H         14.29200        3.78100       -0.69200
H         13.75100        5.21200       -1.60400
H         12.58200        4.26100       -0.66200
C         14.45700        2.68200       -7.40400
O         15.52700        2.50400       -7.97000
N         13.34300        2.16100       -7.90600
H         12.46700        2.24400       -7.40900
H         13.41000        1.63400       -8.76000
