66
0 1
H          9.15300        8.00200       -0.48400
C          8.21300        7.97600       -1.03300
H          7.61800        7.13000       -0.68900
H          8.41200        7.87800       -2.09800
C          7.45600        9.25700       -0.78000
O          7.96300       10.15900       -0.12400
N          6.21900        9.33200       -1.27100
H          5.83600        8.51400       -1.71700
C          5.34200       10.50600       -1.11400
H          5.85900       11.38100       -1.51000
C          4.06200       10.29100       -1.93200
H          3.48300       11.21600       -1.91300
H          4.33600       10.10600       -2.97200
C          3.18100        9.16900       -1.46700
C          2.12200        9.30800       -0.63900
H          1.77900       10.25300       -0.23000
N          1.55600        8.07300       -0.39400
H          0.74300        7.93900        0.19100
C          2.23100        7.06700       -1.05000
C          2.05600        5.67600       -1.10200
H          1.24500        5.20800       -0.56300
C          2.94900        4.90300       -1.86200
H          2.82600        3.82900       -1.92000
C          3.99200        5.53000       -2.56600
H          4.66600        4.93300       -3.16600
C          4.15200        6.92900       -2.51600
H          4.93800        7.39400       -3.09100
C          3.28300        7.73600       -1.74600
C          4.99700       10.82100        0.35400
O          4.57700       11.93100        0.66800
N          5.23000        9.87200        1.26300
H          5.56200        8.98000        0.91300
C          5.14900       10.03700        2.71500
H          4.14300       10.37100        2.97400
C          5.41500        8.68100        3.39900
H          6.41500        8.32600        3.14200
H          5.39700        8.84800        4.47700
C          4.37900        7.58100        3.09200
H          4.44500        6.82500        3.87400
H          3.37500        8.00400        3.13100
C          4.56300        6.86100        1.75400
O          5.43200        7.09400        0.92200
O          3.65500        5.89800        1.51500
H          3.82300        5.58700        0.62100
C          6.12900       11.09600        3.26100
O          5.92000       11.59100        4.36400
N          7.17300       11.46300        2.50700
H          7.31300       10.99900        1.61500
C          8.08400       12.56900        2.84200
H          8.29900       12.53000        3.91100
C          9.41000       12.39700        2.08200
H          9.21600       12.44100        1.01000
H         10.07800       13.21800        2.34500
C         10.11700       11.07700        2.42200
H         10.22200       11.01800        3.50600
H          9.49800       10.24000        2.09900
S         11.76900       10.88000        1.69500
C         11.35000       10.76200       -0.06500
H         10.89000       11.69100       -0.40100
H         12.25900       10.58500       -0.64100
H         10.65700        9.93700       -0.22200
C          7.48900       13.96700        2.56800
O          8.11100       14.97500        2.87900
N          6.30500       14.07800        1.97600
H          5.78100       13.25600        1.71000
H          5.93800       15.00100        1.81900
