67
0 1
H          0.66000        7.49100       -2.69300
C          1.66700        7.10600       -2.84500
H          2.03200        7.41500       -3.82400
H          1.66600        6.01900       -2.78400
C          2.58500        7.66100       -1.78300
O          3.57600        8.30700       -2.10200
N          2.25500        7.39900       -0.51800
H          1.41400        6.87100       -0.34900
C          3.06300        7.80700        0.64300
H          4.08200        7.95500        0.28700
C          2.59500        9.16400        1.19000
H          2.22200        9.77100        0.36400
H          1.77200        9.01800        1.89100
C          3.69700        9.93900        1.84300
C          3.97800        9.96300        3.16500
H          3.41100        9.43100        3.92100
N          5.12000       10.71000        3.38300
H          5.52600       10.85100        4.29700
C          5.64600       11.18900        2.20200
C          6.78800       11.94300        1.89400
H          7.45100       12.27300        2.68100
C          7.05100       12.27200        0.55300
H          7.92100       12.86500        0.30000
C          6.17500       11.84100       -0.45900
H          6.37500       12.10300       -1.49100
C          5.03600       11.07600       -0.14000
H          4.37300       10.73800       -0.92600
C          4.74200       10.73000        1.19800
C          3.18000        6.69900        1.70600
O          3.18500        6.93900        2.91100
N          3.27400        5.45200        1.24200
H          3.30200        5.33400        0.23400
C          3.53800        4.24300        2.03800
H          2.75500        4.11100        2.78600
C          3.53200        3.04300        1.07300
H          3.87700        2.14900        1.59400
H          2.50900        2.86500        0.74000
C          4.39000        3.28000       -0.14900
N          4.00900        4.06300       -1.24400
C          5.11700        4.22600       -1.98200
H          5.17100        4.82200       -2.88400
N          6.15700        3.59500       -1.41200
H          7.11400        3.65300       -1.73200
C          5.72100        2.99600       -0.25100
H          6.32400        2.49000        0.49000
C          4.87400        4.30300        2.79800
O          5.01600        3.66900        3.83800
N          5.84300        5.07600        2.30000
H          5.68000        5.51900        1.40400
C          7.11100        5.39900        2.96700
H          7.45900        4.52300        3.51700
C          8.14400        5.73900        1.88200
H          9.09200        6.01600        2.34600
H          8.32000        4.85200        1.27300
C          7.69000        6.85300        0.97300
N          6.86800        6.68900       -0.14500
C          6.60900        7.92800       -0.59300
H          5.97800        8.15700       -1.44200
N          7.19400        8.84300        0.19800
H          7.05600        9.84700        0.12400
C          7.87600        8.18500        1.19600
H          8.40600        8.62500        2.03000
C          6.99900        6.53900        4.00100
O          8.00200        6.96900        4.55900
N          5.81700        7.07900        4.26800
H          4.98300        6.75000        3.80000
H          5.77200        7.81400        4.95000
