69
0 1
H          1.98300        6.24100        2.47600
C          2.80200        5.99500        3.14900
H          2.90800        4.91400        3.22700
H          2.60200        6.41200        4.13500
C          4.08400        6.58900        2.61700
O          4.71100        7.40600        3.28000
N          4.48100        6.18500        1.41200
H          3.91000        5.52400        0.91000
C          5.67500        6.71400        0.74500
H          6.48100        6.77500        1.47900
C          6.13800        5.74400       -0.35000
H          6.27500        4.75500        0.09100
H          5.36300        5.66100       -1.11400
C          7.42700        6.13900       -1.00300
C          7.53600        6.84300       -2.15100
H          6.69600        7.19500       -2.74100
N          8.86500        7.09900       -2.41800
H          9.17100        7.71400       -3.16900
C          9.68800        6.56900       -1.44800
C         11.07600        6.59400       -1.25500
H         11.71600        7.08400       -1.97300
C         11.61700        5.98300       -0.11100
H         12.68600        5.99600        0.05700
C         10.76600        5.36100        0.82000
H         11.18800        4.89300        1.69900
C          9.37100        5.34600        0.61800
H          8.73000        4.86800        1.34200
C          8.79500        5.95200       -0.52100
C          5.43600        8.13900        0.21200
O          5.08000        8.33900       -0.94800
N          5.62300        9.14500        1.07200
H          5.77800        8.90100        2.04300
C          5.42400       10.56300        0.72400
H          4.44200       10.66900        0.26200
C          5.46200       11.42300        2.00300
H          6.46100       11.35600        2.43600
H          5.29800       12.46300        1.71500
C          4.43400       11.05600        3.09200
H          4.63900       10.05300        3.46000
C          4.56700       12.02700        4.26600
H          5.58100       11.98800        4.66200
H          4.34500       13.04400        3.94100
H          3.87400       11.74300        5.05800
C          2.99100       11.11400        2.58700
H          2.83200       10.35000        1.82700
H          2.30500       10.91900        3.41200
H          2.77900       12.09700        2.16500
C          6.43700       11.09900       -0.30800
O          6.17800       12.11200       -0.95100
N          7.58000       10.42900       -0.49000
H          7.70600        9.57900        0.03600
C          8.62800       10.79300       -1.45700
H          8.68000       11.88200       -1.50600
C          9.99500       10.29000       -0.95800
H          9.94800        9.21500       -0.80200
H         10.75100       10.50200       -1.71500
C         10.42200       10.96000        0.35500
H         10.55500       12.02800        0.18100
H          9.62600       10.83600        1.08900
S         11.94100       10.29500        1.09300
C         13.17300       10.77500       -0.14700
H         14.16700       10.49800        0.20700
H         12.97500       10.25900       -1.08700
H         13.13600       11.85300       -0.30500
C          8.29500       10.32200       -2.89000
O          9.11000        9.71200       -3.57900
N          7.07400       10.54700       -3.35400
H          6.83600       10.22900       -4.27800
H          6.41200       11.04800       -2.77600
