71
0 1
H          4.62700        4.81900       -1.21300
C          4.44400        5.87200       -1.41600
H          3.63200        6.23100       -0.78600
H          4.18000        6.00900       -2.46400
C          5.69200        6.66600       -1.11100
O          5.66400        7.55600       -0.26500
N          6.78700        6.34200       -1.79700
H          6.72200        5.63300       -2.50800
C          8.02700        7.11600       -1.70400
H          8.17200        7.38200       -0.65800
C          9.24500        6.28000       -2.12500
H          9.35300        5.44100       -1.43600
H          9.06200        5.87200       -3.12000
C         10.54100        7.04300       -2.17100
C         11.39700        7.21200       -1.13600
H         11.25700        6.79600       -0.14500
N         12.43800        8.03800       -1.51800
H         13.17200        8.35800       -0.89300
C         12.30100        8.45100       -2.82400
C         13.06700        9.29400       -3.64100
H         13.98400        9.72500       -3.26700
C         12.62300        9.57000       -4.94500
H         13.19800       10.22100       -5.58900
C         11.42300        9.00100       -5.40900
H         11.07800        9.22100       -6.41000
C         10.66800        8.14700       -4.58100
H          9.74200        7.72600       -4.94700
C         11.08900        7.84400       -3.26700
C          7.95400        8.42200       -2.50600
O          7.45900        8.45700       -3.63100
N          8.52100        9.47400       -1.92200
H          8.82300        9.33300       -0.96600
C          8.80800       10.77600       -2.54400
H          9.06600       10.61500       -3.59200
C          7.54400       11.65100       -2.47900
H          7.76100       12.62700       -2.91300
H          6.77500       11.19300       -3.10300
C          6.98600       11.84200       -1.07800
C          7.50100       12.85000       -0.23900
H          8.27700       13.51000       -0.60400
C          7.00800       12.99500        1.07200
H          7.39800       13.76200        1.72400
C          5.98800       12.14000        1.54000
O          5.54700       12.25400        2.81900
H          4.70300       11.81600        2.94200
C          5.46400       11.13600        0.69700
H          4.69800       10.46400        1.05300
C          5.96900       10.98800       -0.60800
H          5.58600       10.20100       -1.24700
C         10.01400       11.48000       -1.88200
O         10.33500       12.62600       -2.19500
N         10.66700       10.82100       -0.92000
H         10.41100        9.85600       -0.75100
C         11.70300       11.37600       -0.05200
H         11.47900       12.42900        0.12300
C         11.67800       10.65800        1.31500
H         11.97800        9.61500        1.19700
H         12.42200       11.14100        1.95100
C         10.31900       10.72200        2.04900
H         10.49500       10.53800        3.10900
H          9.90200       11.72500        1.95300
C          9.28300        9.69800        1.57600
O          9.53100        8.83900        0.74600
N          8.06300        9.75600        2.05500
H          7.78400       10.50100        2.66900
H          7.39300        9.11600        1.65700
C         13.07600       11.31200       -0.74300
O         13.92800       10.49000       -0.41600
N         13.28800       12.14900       -1.74900
H         14.16700       12.11100       -2.23500
H         12.53300       12.74600       -2.06000
