67
0 1
H          6.75000       11.23200        0.94300
C          6.03100       10.47700        1.25700
H          5.09700       10.60800        0.71300
H          5.84900       10.56700        2.32700
C          6.58600        9.10400        0.96900
O          6.70700        8.28200        1.86800
N          6.95600        8.85800       -0.28700
H          6.79500        9.57600       -0.97700
C          7.44000        7.55200       -0.76900
H          6.64300        6.82000       -0.63600
C          7.75800        7.65400       -2.26900
H          8.69200        8.20500       -2.39000
H          7.92100        6.64900       -2.66100
C          6.71700        8.34000       -3.10400
C          5.72100        7.72800       -3.78300
H          5.57000        6.65500       -3.82500
N          4.92200        8.67800       -4.39200
H          4.11500        8.44900       -4.95400
C          5.35800        9.95700       -4.12100
C          4.88400       11.22800       -4.47900
H          4.00200       11.32900       -5.09300
C          5.57600       12.36600       -4.03100
H          5.22800       13.35400       -4.30000
C          6.73000       12.21900       -3.23900
H          7.26600       13.09900       -2.90800
C          7.19800       10.93800       -2.88600
H          8.09700       10.84300       -2.29400
C          6.52000        9.77400       -3.31200
C          8.66800        7.02100       -0.01000
O          8.87000        5.81300        0.07300
N          9.45800        7.91900        0.58500
H          9.21700        8.89100        0.46700
C         10.62500        7.61500        1.42000
H         11.32200        7.01100        0.83700
C         11.32600        8.92500        1.83000
H         10.73200        9.43100        2.59000
H         12.28100        8.66000        2.28600
C         11.60700        9.90500        0.67700
H         12.37600       10.60200        1.01300
H         12.02400        9.34100       -0.15900
S         10.20300       10.89700        0.06500
C          9.84300       11.93000        1.51200
H          9.07300       12.65700        1.25500
H          9.48500       11.31000        2.33400
H         10.74600       12.45900        1.82000
C         10.27500        6.81800        2.68900
O         11.14700        6.16700        3.25600
N          9.01500        6.86700        3.13700
H          8.35000        7.44800        2.63800
C          8.49800        6.11200        4.28400
H          9.32600        5.88700        4.95600
C          7.48600        6.97700        5.06100
H          6.65400        7.25600        4.41400
H          7.08700        6.38000        5.88100
C          8.10700        8.24100        5.67900
H          7.44600        8.57400        6.47900
H          9.06200        7.97300        6.13200
S          8.36100        9.65800        4.56600
C          9.16100       10.80200        5.71900
H         10.08600       10.36000        6.09100
H          9.38800       11.73600        5.20600
H          8.49400       11.00400        6.55700
C          7.89100        4.75000        3.88700
O          7.36100        4.03600        4.73000
N          7.93800        4.35400        2.61900
H          8.38100        4.93200        1.91800
H          7.54400        3.46000        2.38400
