66
0 1
H          2.04500        1.03100       -1.38900
C          0.99700        1.32100       -1.45900
H          0.59300        1.50800       -0.46600
H          0.43200        0.52300       -1.93900
C          0.88300        2.57100       -2.29600
O          0.27800        2.55200       -3.35800
N          1.48600        3.66200       -1.82800
H          1.99100        3.59000       -0.95900
C          1.51300        4.95900       -2.52700
H          0.52000        5.16000       -2.93300
C          1.85600        6.05700       -1.50900
H          1.71100        7.02900       -1.98300
H          1.16000        5.99900       -0.67100
C          3.25700        5.98600       -0.97900
C          4.29400        6.72200       -1.43600
H          4.21600        7.48300       -2.20500
N          5.45700        6.32200       -0.80800
H          6.37200        6.71600       -1.00200
C          5.22300        5.31200        0.10000
C          6.06200        4.58000        0.95000
H          7.12600        4.76800        0.96000
C          5.49900        3.60600        1.79200
H          6.13100        3.03500        2.45900
C          4.10900        3.38700        1.77900
H          3.68000        2.65100        2.44600
C          3.27500        4.12700        0.91700
H          2.20800        3.96700        0.94500
C          3.81300        5.09700        0.04100
C          2.50000        5.00100       -3.71300
O          2.55600        5.99200       -4.43700
N          3.30600        3.94800       -3.89400
H          3.16700        3.16000       -3.27700
C          4.23100        3.72100       -5.01500
H          4.85600        2.87900       -4.71800
C          3.46100        3.27000       -6.27700
H          3.07300        4.15900       -6.77800
H          4.17700        2.80300       -6.95500
C          2.27800        2.29600       -6.09000
H          1.43600        2.83800       -5.66300
H          1.96400        1.95700       -7.07800
C          2.54800        1.06800       -5.21400
O          3.19900        1.04400       -4.17600
O          1.97700       -0.07300       -5.64700
H          2.20300       -0.73500       -4.99300
C          5.23100        4.86400       -5.30000
O          5.71100        4.99500       -6.42200
N          5.53800        5.70100       -4.29800
H          5.10300        5.52100       -3.40600
C          6.32100        6.94600       -4.43400
H          6.27500        7.44500       -3.46800
C          7.81300        6.65100       -4.69500
H          7.92100        6.12900       -5.64600
H          8.36000        7.59000       -4.77700
C          8.46600        5.80600       -3.59100
H          7.94400        4.85200       -3.52500
H          9.49300        5.59300       -3.88900
S          8.50200        6.55500       -1.93400
C          9.63400        7.94600       -2.21000
H          9.19500        8.65100       -2.91600
H          9.81700        8.45800       -1.26500
H         10.58100        7.57600       -2.60600
C          5.73400        7.98400       -5.41800
O          6.40600        8.93900       -5.78700
N          4.47500        7.86600       -5.82100
H          4.11600        8.54600       -6.46900
H          3.90300        7.09700       -5.49900
