74
0 1
H          5.42200        9.90800       -0.59800
C          6.44000        9.78100       -0.96200
H          7.08600        9.47800       -0.14000
H          6.79500       10.71800       -1.38800
C          6.45000        8.71000       -2.02600
O          5.41100        8.14200       -2.34300
N          7.62500        8.42700       -2.58500
H          8.44400        8.91400       -2.26000
C          7.80100        7.36900       -3.58400
H          7.00000        7.44800       -4.32200
C          9.12700        7.57400       -4.32500
H          9.13100        8.57100       -4.76700
H          9.95100        7.52500       -3.61100
C          9.37800        6.58300       -5.42000
C         10.09600        5.44600       -5.29100
H         10.57600        5.12000       -4.37400
N         10.09300        4.75500       -6.48600
H         10.49500        3.82500       -6.59200
C          9.36800        5.41600       -7.45200
C          9.07000        5.12100       -8.78900
H          9.47300        4.23200       -9.25000
C          8.24600        5.99900       -9.51400
H          8.00800        5.79100      -10.54900
C          7.73100        7.15000       -8.89100
H          7.09500        7.82200       -9.45200
C          8.04200        7.43800       -7.54700
H          7.64400        8.32800       -7.08300
C          8.87300        6.58100       -6.79300
C          7.70700        5.97600       -2.93900
O          8.68100        5.45100       -2.40200
N          6.51800        5.37300       -2.99200
H          5.74600        5.89900       -3.37500
C          6.22400        4.05400       -2.41600
H          6.53100        4.04400       -1.36900
C          4.70500        3.82500       -2.49400
H          4.46300        2.92200       -1.93200
H          4.19300        4.65700       -2.00700
C          4.17000        3.67900       -3.89000
C          3.95200        2.50100       -4.51700
H          4.09900        1.52600       -4.06600
N          3.58000        2.73100       -5.82700
H          3.38600        1.99400       -6.49000
C          3.55900        4.07800       -6.11800
C          3.29500        4.79600       -7.29300
H          3.05800        4.27700       -8.20900
C          3.34100        6.20000       -7.25900
H          3.13800        6.77200       -8.15400
C          3.63300        6.86300       -6.05300
H          3.64600        7.94400       -6.02500
C          3.89800        6.13000       -4.87900
H          4.09100        6.66000       -3.95800
C          3.88900        4.71700       -4.88400
C          6.95400        2.89800       -3.12400
O          7.19000        1.85200       -2.52200
N          7.29400        3.06100       -4.40700
H          7.08700        3.95400       -4.82700
C          7.83200        2.00700       -5.27400
H          7.40900        1.06000       -4.93500
C          7.31200        2.23900       -6.70300
H          6.23400        2.39000       -6.64800
H          7.75500        3.14200       -7.11800
C          7.56700        1.06100       -7.65100
H          8.59700        1.09500       -8.00400
H          7.43000        0.13300       -7.09600
S          6.45000        1.00500       -9.08200
C          6.90900        2.53900       -9.93100
H          6.33600        2.62600      -10.85500
H          6.69000        3.39600       -9.29300
H          7.97200        2.52200      -10.16800
C          9.36200        1.86000       -5.14000
O         10.11400        1.92800       -6.10800
N          9.85700        1.71900       -3.91900
H          9.22400        1.69200       -3.13000
H         10.85300        1.64200       -3.80100
