71
0 1
H          7.65000       14.29000        5.51500
C          7.35000       14.92200        4.68000
H          8.05400       15.74500        4.57600
H          6.34900       15.30900        4.86300
C          7.34600       14.09900        3.41400
O          7.72000       12.93300        3.43400
N          6.95600       14.71900        2.30000
H          6.69800       15.69000        2.36200
C          6.82000       14.06500        0.98600
H          6.05000       13.29500        1.05400
C          6.36700       15.11800       -0.04100
H          6.24100       14.62700       -1.00700
H          5.38800       15.49700        0.25700
C          7.30200       16.28100       -0.22300
C          7.15300       17.50400        0.33600
H          6.31500       17.80900        0.95100
N          8.24300       18.29400        0.02400
H          8.34900       19.25100        0.32900
C          9.16000       17.61400       -0.74800
C         10.41800       17.95700       -1.26400
H         10.84800       18.92700       -1.06400
C         11.11700       17.01500       -2.03800
H         12.10000       17.24700       -2.42800
C         10.53800       15.76400       -2.30900
H         11.08300       15.04700       -2.91000
C          9.27000       15.43400       -1.79400
H          8.84300       14.46500       -2.01100
C          8.56000       16.33800       -0.97200
C          8.10200       13.36200        0.50700
O          8.02400       12.38000       -0.22700
N          9.27800       13.82500        0.94600
H          9.26800       14.64500        1.52900
C         10.57900       13.26600        0.56700
H         10.62300       13.23700       -0.52200
C         11.67100       14.23200        1.07100
H         11.46900       15.22400        0.66300
H         11.60200       14.29900        2.15800
C         13.11800       13.85700        0.70800
H         13.78200       14.62900        1.09800
H         13.39000       12.91900        1.19200
C         13.35600       13.74000       -0.79500
O         13.74900       14.67900       -1.46400
N         13.12500       12.59000       -1.38600
H         12.75400       11.81100       -0.84900
H         13.30200       12.54400       -2.37200
C         10.78800       11.82000        1.06300
O         11.61100       11.09900        0.50100
N         10.03700       11.38200        2.07900
H          9.37200       12.02000        2.50100
C         10.06000       10.00700        2.59200
H         11.05300        9.59200        2.42100
C          9.82600       10.03600        4.11100
H          8.78400       10.29900        4.29800
H          9.98900        9.03400        4.51200
C         10.72900       11.00400        4.85900
C         12.12500       10.81300        4.85600
H         12.55000        9.96100        4.34100
C         12.96900       11.73100        5.51200
H         14.03700       11.58200        5.50200
C         12.41200       12.84500        6.17700
O         13.21600       13.73900        6.80800
H         14.13500       13.47000        6.78800
C         11.01500       13.03400        6.18600
H         10.60100       13.88500        6.70200
C         10.17600       12.11300        5.52900
H          9.10500       12.25600        5.53500
C          9.07200        9.06200        1.87800
O          8.97400        7.89000        2.22300
N          8.31900        9.52600        0.88600
H          8.39700       10.48900        0.58900
H          7.68700        8.89000        0.43100
