78
0 1
H         15.19800       15.66300        3.64700
C         14.11500       15.62400        3.55900
H         13.81500       15.94700        2.56300
H         13.65400       16.26900        4.30500
C         13.64400       14.20500        3.77400
O         13.02800       13.61800        2.89200
N         13.94100       13.64600        4.94600
H         14.40700       14.20500        5.64000
C         13.42400       12.33400        5.34400
H         13.53200       11.65300        4.49800
C         14.24000       11.76300        6.51400
H         15.27700       11.64300        6.19600
H         14.22500       12.48100        7.33500
C         13.73900       10.44800        7.03800
C         14.14300        9.23000        6.61400
H         14.90800        9.05800        5.86600
N         13.40100        8.24800        7.24100
H         13.50100        7.26300        7.04200
C         12.46300        8.78500        8.09500
C         11.47300        8.21600        8.91100
H         11.35200        7.14400        8.95200
C         10.64900        9.05900        9.67600
H          9.88800        8.63800       10.31900
C         10.82200       10.45300        9.61000
H         10.19200       11.10200       10.20400
C         11.81700       11.01200        8.78400
H         11.93200       12.08700        8.73400
C         12.66500       10.19500        8.00400
C         11.93100       12.39300        5.69600
O         11.46900       13.33900        6.33400
N         11.20300       11.32800        5.35700
H         11.65800       10.57300        4.86500
C          9.86000       11.04100        5.85400
H          9.77400       11.44100        6.86500
C          8.80200       11.73800        4.98100
H          7.84700       11.70400        5.50800
H          9.06300       12.79300        4.87800
C          8.61500       11.14100        3.59800
C          9.52000       11.45400        2.56500
H         10.34500       12.13200        2.75200
C          9.35500       10.88800        1.28700
H         10.04500       11.12200        0.49100
C          8.27800       10.01400        1.03600
O          8.12100        9.47300       -0.20100
H          7.31900        8.95600       -0.26800
C          7.36400        9.70600        2.06700
H          6.53600        9.04100        1.87800
C          7.53400       10.27200        3.34600
H          6.83200       10.03800        4.13500
C          9.64400        9.52100        5.93600
O         10.41200        8.73300        5.38300
N          8.57900        9.10600        6.62000
H          7.97900        9.81700        7.01300
C          8.18800        7.71200        6.88300
H          9.08300        7.15900        7.17100
C          7.22600        7.71700        8.08300
H          6.87500        6.70200        8.27700
H          7.78300        8.03300        8.96600
C          6.04800        8.63300        7.93300
C          4.83700        8.27900        7.44900
H          4.57300        7.27400        7.13700
N          4.02500        9.39400        7.37000
H          3.07500        9.36500        7.02800
C          4.68700       10.53500        7.77100
C          4.32100       11.88700        7.82800
H          3.33400       12.20000        7.52200
C          5.25900       12.83000        8.28400
H          4.99500       13.87800        8.33300
C          6.54000       12.40900        8.68300
H          7.25600       13.13900        9.03900
C          6.89600       11.04700        8.62700
H          7.87900       10.73900        8.95000
C          5.98100       10.07600        8.16100
C          7.60800        6.97300        5.65200
O          6.67200        6.18700        5.75400
N          8.12600        7.21400        4.45600
H          7.74800        6.73100        3.65900
H          8.92100        7.83300        4.37400
