71
0 1
H          3.37900        6.32800       -7.10900
C          2.83100        6.81700       -6.30500
H          1.76100        6.68600       -6.46300
H          3.06800        7.88000       -6.28500
C          3.21300        6.19400       -4.98400
O          2.35300        5.68200       -4.27700
N          4.50300        6.25400       -4.65300
H          5.13400        6.67800       -5.31400
C          5.08500        5.68900       -3.42300
H          4.28000        5.57300       -2.70000
C          5.63200        4.27700       -3.70700
H          4.89200        3.74000       -4.30300
H          6.53200        4.37100       -4.31700
C          5.95400        3.39100       -2.53300
C          5.70600        3.64900       -1.22600
H          5.25000        4.55300       -0.84600
N          6.13500        2.59400       -0.44600
H          6.05300        2.57700        0.56000
C          6.67600        1.58700       -1.21300
C          7.23200        0.33800       -0.89700
H          7.29200        0.01200        0.13000
C          7.70600       -0.48100       -1.93600
H          8.13700       -1.44700       -1.71300
C          7.61800       -0.04100       -3.27000
H          7.98400       -0.67300       -4.06700
C          7.05800        1.21700       -3.57400
H          6.99700        1.54400       -4.60000
C          6.57300        2.06500       -2.55400
C          6.10300        6.64600       -2.76800
O          7.09700        6.23800       -2.17500
N          5.85900        7.95600       -2.86000
H          5.00400        8.25300       -3.31800
C          6.68500        9.01500       -2.25000
H          7.71700        8.90600       -2.58600
C          6.14700       10.37200       -2.73000
H          6.71400       11.17300       -2.25300
H          6.30400       10.45100       -3.80600
C          4.67500       10.57100       -2.45400
N          3.63500        9.92500       -3.13100
C          2.50000       10.38100       -2.58100
H          1.50600       10.08300       -2.89200
N          2.77300       11.24800       -1.59000
H          2.08400       11.73200       -1.03000
C          4.14100       11.37800       -1.49300
H          4.69600       11.99700       -0.80000
C          6.72300        8.96900       -0.71100
O          7.60100        9.56600       -0.09800
N          5.78500        8.25200       -0.09400
H          5.08500        7.82500       -0.68000
C          5.72900        7.91500        1.33400
H          6.17800        8.72700        1.90800
C          4.24500        7.80400        1.73300
H          4.16400        7.44400        2.75900
H          3.80900        8.80400        1.71200
C          3.43700        6.90600        0.81200
C          3.36500        5.51900        1.05000
H          3.83500        5.09700        1.93000
C          2.70200        4.68200        0.13000
H          2.65600        3.61400        0.28700
C          2.12300        5.23000       -1.03300
O          1.57300        4.41700       -1.96900
H          1.66400        4.80000       -2.85700
C          2.17600        6.62200       -1.25700
H          1.72600        7.03700       -2.14600
C          2.82600        7.45600       -0.33100
H          2.87800        8.52100       -0.51100
C          6.51700        6.63300        1.69400
O          6.43300        6.14300        2.81400
N          7.26100        6.03200        0.77300
H          7.32100        6.39900       -0.16800
H          7.77200        5.20600        1.03300
