74
0 1
H          6.93900       10.00500       -1.52300
C          6.70700        8.96600       -1.74500
H          7.41000        8.58200       -2.48200
H          5.69200        8.88700       -2.13000
C          6.81800        8.14200       -0.48400
O          5.89600        7.41000       -0.14400
N          7.94200        8.26600        0.22000
H          8.60200        8.97500       -0.05900
C          8.23700        7.49100        1.43600
H          8.17600        6.42800        1.19900
C          9.67000        7.80600        1.89200
H          9.90000        7.18400        2.75700
H         10.36000        7.51800        1.09700
C          9.93400        9.23700        2.26500
C         10.50200       10.16500        1.46100
H         10.85700        9.98000        0.45500
N         10.53300       11.38500        2.10700
H         10.88600       12.23000        1.68300
C          9.98500       11.30700        3.36800
C          9.77500       12.25700        4.37900
H         10.07300       13.28400        4.23400
C          9.17500       11.85100        5.58300
H          9.00600       12.56700        6.37600
C          8.80100       10.50600        5.76000
H          8.34500       10.19500        6.69000
C          9.01900        9.56200        4.73800
H          8.72900        8.53200        4.89200
C          9.60700        9.93800        3.50900
C          7.23500        7.74700        2.57300
O          7.02100        6.87300        3.41000
N          6.58500        8.91600        2.58100
H          6.85200        9.58800        1.87400
C          5.57500        9.29500        3.58200
H          6.03500        9.20100        4.56700
C          5.10200       10.75700        3.41100
H          4.19200       10.77100        2.81100
H          4.82500       11.12400        4.40000
C          6.09900       11.75400        2.79600
H          5.75100       12.76400        3.01000
H          7.07900       11.62900        3.25700
C          6.21100       11.61000        1.28100
O          7.24900       11.26800        0.74000
N          5.13900       11.75400        0.53400
H          4.23200       11.91200        0.94800
H          5.24700       11.58800       -0.44800
C          4.34000        8.37700        3.56300
O          3.58800        8.34900        4.53400
N          4.10600        7.65300        2.46200
H          4.74900        7.72700        1.68300
C          2.96400        6.74700        2.30200
H          2.13700        7.12600        2.90200
C          2.50600        6.75100        0.83400
H          3.14900        6.05900        0.28800
H          1.49200        6.35100        0.78900
C          2.53100        8.06500        0.09700
C          2.90800        8.20500       -1.19400
H          3.24900        7.38800       -1.81900
N          2.78000        9.52200       -1.58500
H          2.96200        9.84000       -2.52600
C          2.32700       10.31300       -0.55300
C          2.06600       11.68800       -0.45200
H          2.19900       12.33300       -1.30800
C          1.61600       12.21100        0.77200
H          1.39800       13.26600        0.86700
C          1.43200       11.35300        1.87000
H          1.07700       11.75200        2.81100
C          1.68700        9.97200        1.75300
H          1.53600        9.32900        2.60900
C          2.14600        9.40900        0.54000
C          3.23500        5.31900        2.81400
O          2.37000        4.45500        2.73100
N          4.42200        5.02700        3.33500
H          5.13700        5.73900        3.40300
H          4.58100        4.09300        3.66900
