67
0 1
H          4.94500        8.40800       13.29600
C          4.41600        8.71800       12.39500
H          5.11400        9.18200       11.70200
H          3.63300        9.42900       12.65400
C          3.79200        7.50700       11.74300
O          2.57400        7.41900       11.64100
N          4.62600        6.56900       11.29700
H          5.61400        6.70600       11.44100
C          4.21400        5.40500       10.49400
H          3.73400        5.76200        9.58300
C          5.47100        4.61400       10.10300
H          5.90700        4.19000       11.00900
H          5.16700        3.78100        9.46800
C          6.55200        5.36700        9.37700
C          6.38500        6.46700        8.60400
H          5.43700        6.95700        8.41700
N          7.60200        6.86000        8.08300
H          7.71600        7.65300        7.46700
C          8.61900        6.01900        8.47600
C          9.99500        5.99200        8.20800
H         10.44500        6.74500        7.57900
C         10.78000        4.97000        8.76900
H         11.84300        4.93100        8.57400
C         10.17900        3.99300        9.58400
H         10.78600        3.20700       10.01200
C          8.79500        4.03100        9.84500
H          8.34700        3.27300       10.47100
C          7.97700        5.04500        9.29900
C          3.19700        4.48000       11.18300
O          2.41300        3.82700       10.49900
N          3.14700        4.46200       12.51900
H          3.78000        5.06900       13.03000
C          2.14900        3.70900       13.29400
H          2.17800        2.67600       12.94200
C          2.54000        3.70000       14.78800
H          2.03100        2.85800       15.26100
H          3.61300        3.51600       14.87600
C          2.17600        4.96600       15.59000
H          1.09100        5.05400       15.64400
H          2.54400        4.85600       16.60900
C          2.75900        6.25100       15.01100
O          3.89800        6.30900       14.57500
N          1.99500        7.31800       14.94000
H          1.04300        7.29300       15.26200
H          2.38600        8.12200       14.48400
C          0.70200        4.20000       13.08600
O         -0.23300        3.51600       13.48900
N          0.50100        5.37100       12.46800
H          1.30700        5.91800       12.18600
C         -0.82200        5.87200       12.08200
H         -1.49300        5.72400       12.92900
C         -0.69600        7.38600       11.81500
H         -0.23500        7.85200       12.68800
H         -0.02900        7.53800       10.96500
C         -2.01000        8.12900       11.52500
H         -1.79700        9.19500       11.44000
H         -2.41900        7.80200       10.56900
C         -3.05400        7.93500       12.62000
O         -3.09500        8.64900       13.60600
N         -3.91300        6.94800       12.50500
H         -4.57900        6.83600       13.24600
H         -3.82000        6.29200       11.73500
C         -1.43500        5.10900       10.88400
O         -2.63100        5.21800       10.62500
N         -0.66000        4.33000       10.13800
H          0.32100        4.22000       10.35800
H         -1.08000        3.82300        9.37700
