67
0 1
H          4.60400       -6.56400       -4.88000
C          4.46900       -5.67200       -5.49000
H          3.41900       -5.38500       -5.49100
H          4.79900       -5.87500       -6.50700
C          5.29600       -4.55000       -4.91100
O          5.96900       -4.73600       -3.90000
N          5.23900       -3.37400       -5.54000
H          4.65700       -3.29500       -6.35900
C          6.01000       -2.19400       -5.12700
H          6.98400       -2.56100       -4.81500
C          6.28800       -1.26600       -6.32000
H          6.64600       -1.86700       -7.15700
H          5.35600       -0.78900       -6.62800
C          7.31500       -0.20300       -6.04700
C          8.63500       -0.43400       -5.86400
H          9.10200       -1.41200       -5.90100
N          9.28300        0.74900       -5.57000
H         10.27000        0.80500       -5.36800
C          8.40800        1.81100       -5.53500
C          8.57700        3.17700       -5.26300
H          9.55600        3.57200       -5.03800
C          7.45200        4.01900       -5.27400
H          7.56200        5.07500       -5.06400
C          6.18100        3.48400       -5.54800
H          5.31500        4.13200       -5.54600
C          6.02500        2.11000       -5.81900
H          5.04200        1.70600       -6.00700
C          7.13400        1.23400       -5.82600
C          5.41900       -1.47600       -3.89700
O          5.10800       -0.28800       -3.92200
N          5.25700       -2.19600       -2.78300
H          5.51500       -3.17600       -2.81900
C          4.85500       -1.60700       -1.49500
H          4.02200       -0.92900       -1.69200
C          4.31900       -2.69700       -0.54100
H          4.00000       -2.23300        0.39300
H          3.41900       -3.10500       -1.00300
C          5.24000       -3.89500       -0.22300
H          4.62800       -4.64100        0.28300
H          5.58400       -4.34400       -1.15400
C          6.45100       -3.64700        0.68200
O          7.42100       -4.38400        0.64200
N          6.49900       -2.62500        1.50500
H          5.81700       -1.87800        1.46100
H          7.32500       -2.54500        2.06900
C          5.94800       -0.73000       -0.85300
O          5.73300       -0.19200        0.23100
N          7.11900       -0.61200       -1.48800
H          7.21600       -1.07000       -2.38400
C          8.26700        0.17400       -1.02500
H          8.21300        0.25500        0.06200
C          9.58800       -0.54700       -1.37800
H          9.85200       -0.33400       -2.41500
H         10.37300       -0.11500       -0.75600
C          9.59100       -2.07700       -1.15400
H         10.62400       -2.42100       -1.10300
H          9.11900       -2.30400       -0.19900
C          8.90300       -2.85800       -2.27800
O          8.84900       -2.43700       -3.41900
N          8.29000       -3.98600       -2.00600
H          7.80500       -4.44900       -2.76300
H          8.25100       -4.33600       -1.05200
C          8.26800        1.61500       -1.57900
O          9.15100        2.40100       -1.25700
N          7.31700        1.98600       -2.43000
H          6.61100        1.33000       -2.72800
H          7.36500        2.90400       -2.83900
