69
0 1
H         12.81400        7.25100        1.99000
C         11.81300        6.83800        2.10800
H         11.23700        7.46300        2.78900
H         11.88100        5.82700        2.50500
C         11.13300        6.80100        0.76100
O         11.71900        7.18400       -0.24100
N          9.87400        6.37200        0.73800
H          9.44700        6.13900        1.62200
C          9.03100        6.21300       -0.46100
H          9.62400        5.72100       -1.23200
C          7.86200        5.28300       -0.08900
H          7.24600        5.10300       -0.97100
H          8.26900        4.31800        0.21700
C          6.99300        5.79900        1.02000
C          5.88800        6.55700        0.85100
H          5.48400        6.84900       -0.11100
N          5.40400        6.95800        2.07900
H          4.63600        7.62100        2.18300
C          6.17800        6.47600        3.11100
C          6.12100        6.62900        4.50300
H          5.33900        7.22400        4.95200
C          7.08700        5.99300        5.30100
H          7.05300        6.09400        6.37700
C          8.09100        5.21300        4.69800
H          8.82300        4.71400        5.31900
C          8.14400        5.07100        3.29700
H          8.90900        4.45300        2.85200
C          7.19300        5.70600        2.46600
C          8.53900        7.54700       -1.08000
O          7.47800        7.58600       -1.70500
N          9.28800        8.64100       -0.88400
H         10.19800        8.46600       -0.47500
C          8.95900       10.05500       -1.15200
H          9.80500       10.63600       -0.78400
C          8.88300       10.30000       -2.67500
H          9.84000       10.02400       -3.12100
H          8.11900        9.64700       -3.09800
C          8.53600       11.74500       -3.08800
H          7.56800       12.02300       -2.67300
C          9.58800       12.75400       -2.62400
H          9.60600       12.79800       -1.53500
H         10.57300       12.47100       -2.99400
H          9.33300       13.74600       -2.99600
C          8.44000       11.82900       -4.61200
H          9.40100       11.58200       -5.06300
H          7.68300       11.13300       -4.96900
H          8.15200       12.83900       -4.90500
C          7.73500       10.59800       -0.38700
O          7.84300       11.60300        0.31000
N          6.58200        9.94300       -0.50700
H          6.60200        9.11000       -1.08400
C          5.27100       10.39600       -0.02000
H          5.21500       11.47700       -0.16700
C          4.17400        9.76800       -0.89600
H          4.13000        8.69400       -0.71200
H          3.21000       10.19800       -0.62300
C          4.40100       10.00200       -2.36900
N          4.23200       11.22100       -3.02300
C          4.61300       11.01600       -4.29100
H          4.60000       11.77400       -5.06300
N          5.02100        9.74600       -4.46000
H          5.36200        9.35000       -5.32300
C          4.90100        9.09100       -3.25400
H          5.18000        8.07000       -3.03200
C          5.06500       10.15200        1.48600
O          4.11600        9.50000        1.91400
N          5.98400       10.61500        2.31900
H          6.77200       11.12800        1.94400
H          5.87900       10.44700        3.30500
