74
0 1
H          5.14600        3.79300        1.78100
C          6.10500        3.49000        2.19800
H          6.21400        2.40900        2.12200
H          6.16800        3.79200        3.24200
C          7.22000        4.15000        1.42400
O          8.05800        3.47300        0.84300
N          7.22900        5.48000        1.41000
H          6.53900        5.97100        1.95800
C          8.31300        6.27500        0.82600
H          8.59500        5.83000       -0.13000
C          7.81700        7.70300        0.55800
H          8.65900        8.29600        0.21100
H          7.09200        7.66600       -0.25600
C          7.17400        8.41400        1.71300
C          7.79000        9.29400        2.53200
H          8.82300        9.59900        2.44100
N          6.91500        9.71700        3.51200
H          7.17500       10.36100        4.24600
C          5.67900        9.12300        3.37500
C          4.48700        9.21200        4.10900
H          4.42900        9.84700        4.98000
C          3.37300        8.46200        3.69500
H          2.44500        8.51800        4.24900
C          3.46300        7.64200        2.55500
H          2.59900        7.07500        2.23600
C          4.66500        7.56100        1.82500
H          4.71600        6.93900        0.94400
C          5.80800        8.29300        2.22000
C          9.55500        6.25700        1.73200
O          9.45400        6.39800        2.95100
N         10.75100        6.11700        1.15000
H         10.80600        6.04100        0.14200
C         11.99700        5.90900        1.91000
H         11.81100        5.13700        2.65900
C         13.08700        5.38400        0.96600
H         13.97700        5.14300        1.54900
H         12.73900        4.46000        0.50300
C         13.46800        6.34800       -0.12800
N         12.74200        6.56700       -1.30000
C         13.43900        7.47600       -1.99700
H         13.15000        7.85700       -2.96800
N         14.53100        7.86000       -1.31200
H         15.21200        8.53600       -1.62700
C         14.56500        7.15800       -0.12800
H         15.31100        7.21900        0.65400
C         12.49100        7.13700        2.69400
O         13.40500        7.00800        3.50200
N         11.89200        8.31300        2.48700
H         11.16700        8.34600        1.78800
C         12.10100        9.51300        3.31200
H         13.04600        9.40500        3.84500
C         12.23700       10.74600        2.40600
H         12.52500       11.59900        3.02100
H         13.05600       10.57000        1.70700
C         11.02000       11.11900        1.61400
C         10.09600       12.03100        1.99000
H         10.13600       12.59800        2.91500
N          9.10100       12.10700        1.03400
H          8.30100       12.71900        1.10900
C          9.33400       11.23900       -0.01100
C          8.63000       10.94300       -1.18700
H          7.70500       11.45200       -1.41100
C          9.14100        9.97100       -2.06400
H          8.61000        9.72700       -2.97400
C         10.34200        9.30800       -1.75100
H         10.72600        8.55200       -2.42300
C         11.04200        9.61500       -0.56700
H         11.96400        9.10300       -0.33800
C         10.55700       10.58800        0.33300
C         11.02700        9.69400        4.40800
O         10.88300       10.76900        4.98200
N         10.22200        8.68100        4.70500
H         10.28600        7.80600        4.20000
H          9.53300        8.80700        5.42600
