64
0 1
H         -0.61200        2.95400        4.13300
C         -1.07700        2.59600        3.21600
H         -2.13700        2.84200        3.21400
H         -0.95200        1.51600        3.14100
C         -0.40700        3.24800        2.03000
O          0.15800        2.56500        1.18600
N         -0.47100        4.57700        1.96100
H         -0.91900        5.07600        2.71100
C          0.21900        5.35200        0.92600
H          0.01300        4.88600       -0.03600
C         -0.35900        6.77100        0.88300
H         -1.41100        6.71500        0.60000
H         -0.30500        7.20600        1.88200
C          0.33700        7.68900       -0.07200
C          1.14800        8.70900        0.28100
H          1.37700        8.99400        1.30200
N          1.65500        9.31300       -0.85100
H          2.32300       10.08200       -0.81700
C          1.20800        8.69600       -1.99900
C          1.46600        8.90300       -3.36100
H          2.14100        9.68500       -3.67600
C          0.84300        8.07300       -4.30800
H          1.03700        8.21600       -5.36300
C         -0.03000        7.05500       -3.88300
H         -0.51000        6.42300       -4.61800
C         -0.28000        6.85400       -2.51100
H         -0.95100        6.06700       -2.19900
C          0.34000        7.66300       -1.53400
C          1.74400        5.36900        1.17300
O          2.17100        5.84000        2.22900
N          2.58700        4.89100        0.23300
C          2.22500        4.37700       -1.08200
H          1.63500        5.09900       -1.64500
H          1.67100        3.44300       -0.96700
C          3.54200        4.10700       -1.80400
H          3.88500        5.01700       -2.29900
H          3.45200        3.28900       -2.51900
C          4.48000        3.75600       -0.65100
H          5.52600        3.90500       -0.92000
H          4.31200        2.72000       -0.34900
C          4.02100        4.69300        0.47300
H          4.17000        4.20000        1.43400
C          4.85200        5.98600        0.47600
O          6.00100        5.97000        0.91300
N          4.31400        7.10000       -0.03100
H          3.36200        7.05200       -0.36500
C          5.04900        8.35500       -0.25200
H          6.07700        8.23200        0.08800
C          5.10900        8.66000       -1.76100
H          4.10600        8.88000       -2.12100
H          5.71800        9.55100       -1.91500
C          5.67900        7.55400       -2.61900
N          5.31200        7.30800       -3.94200
C          6.06500        6.27900       -4.35400
H          6.01900        5.84700       -5.34500
N          6.88400        5.87400       -3.36900
H          7.55900        5.12600       -3.43800
C          6.66400        6.67300       -2.27000
H          7.16900        6.62100       -1.31400
C          4.47600        9.49800        0.59700
O          4.12100       10.56100        0.09900
N          4.29600        9.26700        1.89000
H          4.54200        8.36700        2.27500
H          3.91200        9.99900        2.46300
