64
0 1
H          1.90000        2.48700        5.94600
C          1.87500        3.06200        5.02200
H          2.32800        2.48500        4.21800
H          2.41300        3.99800        5.15900
C          0.43600        3.36300        4.67200
O         -0.46900        2.96800        5.39500
N          0.22900        4.05800        3.55700
H          1.02500        4.31100        2.99200
C         -1.09300        4.44700        3.04800
H         -1.80400        3.67200        3.34000
C         -1.53000        5.75700        3.73800
H         -2.59400        5.89500        3.56300
H         -1.43100        5.61400        4.81500
C         -0.87400        7.07200        3.40500
C          0.12800        7.31600        2.52700
H          0.64200        6.57800        1.92900
N          0.37600        8.67100        2.45800
H          0.99000        9.08200        1.75900
C         -0.42900        9.37800        3.32200
C         -0.56900       10.74500        3.60200
H          0.04900       11.46900        3.09200
C         -1.50500       11.15200        4.56800
H         -1.61300       12.20100        4.81100
C         -2.29000       10.19100        5.23300
H         -2.99700       10.50700        5.98800
C         -2.15100        8.82200        4.93000
H         -2.75300        8.09000        5.44900
C         -1.22200        8.37900        3.96100
C         -1.09300        4.50700        1.50400
O         -0.01100        4.57400        0.91300
N         -2.24900        4.46100        0.81000
C         -3.59400        4.26700        1.33700
H         -3.82600        4.95400        2.14800
H         -3.70400        3.23700        1.67700
C         -4.54100        4.52700        0.16600
H         -4.77400        5.59000        0.10400
H         -5.45700        3.94200        0.25100
C         -3.71400        4.11500       -1.04900
H         -4.03800        4.63400       -1.95200
H         -3.79200        3.03600       -1.18800
C         -2.27500        4.47000       -0.65700
H         -1.61500        3.68500       -1.02800
C         -1.80300        5.79100       -1.29300
O         -1.42000        5.78700       -2.46000
N         -1.77800        6.91100       -0.56000
H         -2.15400        6.87300        0.38200
C         -1.23100        8.19600       -1.03500
H         -1.50000        8.28800       -2.08800
C         -1.87300        9.40100       -0.31200
H         -1.38300        9.56600        0.64600
H         -1.68200       10.28500       -0.92300
C         -3.38800        9.30500       -0.06800
H         -3.81300       10.30700       -0.11400
H         -3.86600        8.70100       -0.83900
C         -3.67700        8.72000        1.31000
O         -3.70000        7.51700        1.51000
N         -3.84900        9.54200        2.32000
H         -3.85800        9.12200        3.23400
H         -3.72100       10.52900        2.20400
C          0.31500        8.22800       -0.98200
O          0.92900        9.11800       -0.39800
N          0.98000        7.22700       -1.54100
H          0.46300        6.49100       -2.00600
H          1.98400        7.21900       -1.49200
