67
0 1
H          3.63100        7.39700        2.88000
C          4.65400        7.03100        2.79900
H          4.65700        5.94500        2.86200
H          5.25800        7.45500        3.59900
C          5.21900        7.45300        1.46300
O          4.53600        8.09800        0.67800
N          6.47700        7.09900        1.20600
H          6.96400        6.53900        1.88500
C          7.10800        7.31600       -0.10000
H          6.76800        8.28100       -0.47900
C          8.63600        7.39400        0.05400
H          8.88800        8.23200        0.70500
H          8.99300        6.47600        0.52500
C          9.34000        7.57400       -1.25400
C         10.13300        6.66000       -1.85700
H         10.42000        5.70200       -1.43500
N         10.44200        7.09500       -3.13000
H         10.89400        6.51100       -3.83800
C          9.88800        8.32500       -3.40200
C          9.87000        9.13200       -4.54600
H         10.38000        8.81200       -5.44400
C          9.17800       10.35500       -4.50900
H          9.16500       10.99400       -5.38200
C          8.50500       10.74300       -3.33700
H          7.98000       11.68800       -3.30900
C          8.51300        9.91200       -2.19900
H          7.98800       10.22200       -1.30700
C          9.20700        8.68100       -2.20200
C          6.68500        6.25900       -1.14000
O          6.37400        5.12400       -0.78700
N          6.75600        6.61400       -2.43000
H          7.08900        7.54500       -2.63000
C          6.38900        5.77700       -3.58500
H          5.30500        5.66200       -3.61900
C          6.87100        6.46200       -4.87100
H          7.95900        6.51400       -4.82700
H          6.59000        5.82600       -5.71200
C          6.35800        7.87600       -5.16600
H          5.27300        7.85600       -5.26300
H          6.62600        8.54800       -4.35100
C          6.96700        8.41900       -6.46200
O          7.75800        7.78200       -7.14400
N          6.61700        9.61900       -6.86500
H          5.97900       10.17700       -6.32800
H          7.03700        9.93200       -7.72200
C          7.01600        4.36900       -3.59600
O          6.40900        3.43200       -4.10600
N          8.23700        4.22700       -3.07000
H          8.68800        5.06200       -2.72900
C          8.95300        2.95000       -2.93200
H          8.27300        2.14500       -3.21600
C         10.15900        2.87700       -3.89400
H         10.92700        3.58400       -3.57900
H         10.58600        1.87700       -3.80600
C          9.80900        3.09000       -5.38300
H         10.55300        2.57400       -5.98900
H          8.84000        2.63600       -5.59600
C          9.80600        4.55300       -5.82800
O         10.52500        5.39300       -5.31100
N          8.99500        4.91900       -6.79700
H          8.94600        5.90800       -7.01800
H          8.37600        4.25600       -7.22500
C          9.33100        2.65600       -1.46400
O         10.34400        2.03200       -1.17600
N          8.55900        3.14000       -0.49900
H          7.71500        3.65200       -0.72600
H          8.80500        2.93400        0.45500
