73
0 1
H         10.37600        4.39200       -3.62100
C         10.48800        4.24100       -2.54800
H         11.44200        4.64900       -2.21900
H         10.44200        3.17700       -2.32300
C          9.36500        4.95200       -1.83100
O          8.52000        5.57400       -2.46900
N          9.36200        4.87500       -0.50100
H         10.11800        4.39100       -0.03900
C          8.34900        5.49900        0.35400
H          7.81600        6.24400       -0.23300
C          7.30600        4.46300        0.79900
H          6.81600        4.05100       -0.08500
H          7.81500        3.64500        1.31200
C          6.26100        5.01500        1.72100
C          5.09900        5.58600        1.33400
H          4.76000        5.66000        0.30900
N          4.44800        6.11100        2.43300
H          3.61700        6.69400        2.36900
C          5.14400        5.87100        3.59700
C          4.90800        6.20000        4.93900
H          4.00300        6.71500        5.22000
C          5.86300        5.85100        5.90800
H          5.70100        6.10200        6.94700
C          7.03600        5.17700        5.52300
H          7.77300        4.91600        6.27000
C          7.25900        4.84200        4.17300
H          8.17000        4.33500        3.89000
C          6.31600        5.17500        3.17500
C          8.96100        6.24300        1.54900
O          9.98000        5.83400        2.09900
N          8.28900        7.33300        1.93000
H          7.42600        7.47800        1.43400
C          8.49400        8.13300        3.14900
H          8.57000        7.44700        3.99600
C          9.81100        8.94100        3.06800
H          9.95800        9.37700        4.05800
H         10.64700        8.25900        2.90600
C          9.88600       10.08700        2.03400
H          8.96100       10.66200        2.04700
C         11.02900       11.03400        2.40400
H         11.97700       10.49500        2.40200
H         11.07900       11.85500        1.69000
H         10.85600       11.45000        3.39700
C         10.14700        9.60100        0.60500
H          9.31400        9.00700        0.24300
H         10.27100       10.45600       -0.06000
H         11.05400        8.99500        0.58000
C          7.29700        9.06800        3.43500
O          7.13700        9.57900        4.53900
N          6.45900        9.30900        2.42300
H          6.65800        8.87900        1.53700
C          5.24800       10.12900        2.45700
H          5.46000       11.04400        3.01300
C          4.89200       10.53500        1.00900
H          3.84900       10.85400        0.96800
H          5.49400       11.40800        0.75300
C          5.14600        9.47300       -0.05600
C          6.42800        9.35000       -0.63500
H          7.20800       10.05200       -0.37300
C          6.69700        8.31500       -1.55200
H          7.68000        8.20600       -1.98800
C          5.67100        7.41900       -1.92100
O          5.92900        6.38100       -2.75700
H          6.87500        6.15300       -2.79000
C          4.37600        7.57900       -1.38600
H          3.59400        6.89800       -1.68900
C          4.11800        8.59300       -0.44400
H          3.13100        8.69100       -0.01000
C          4.11000        9.40600        3.20500
O          3.23100        8.77900        2.62100
N          4.13100        9.46100        4.52900
H          4.92700        9.87700        4.99300
H          3.40500        8.99600        5.04500
