71
0 1
H          4.39100        4.91200        1.25000
C          5.16100        5.65400        1.45500
H          6.14200        5.18300        1.42900
H          4.99600        6.09200        2.43700
C          5.09800        6.73800        0.40500
O          4.22000        6.71400       -0.45000
N          6.04500        7.67100        0.46100
H          6.71600        7.59400        1.21800
C          6.15500        8.82900       -0.44700
H          5.62100        8.60900       -1.37000
C          5.47600       10.04300        0.20200
H          5.36000       10.81600       -0.55900
H          4.47200        9.76100        0.52200
C          6.20100       10.64200        1.37300
C          7.02900       11.70800        1.30400
H          7.25200       12.25400        0.39300
N          7.53600       11.98900        2.55800
H          8.15100       12.76800        2.74400
C          7.06800       11.10200        3.50300
C          7.28700       10.97000        4.88300
H          7.92500       11.66800        5.40300
C          6.65300        9.92600        5.57900
H          6.79800        9.81700        6.64600
C          5.81200        9.03400        4.88900
H          5.31000        8.24300        5.43200
C          5.59300        9.18300        3.50500
H          4.91800        8.51400        2.99300
C          6.21600       10.21800        2.77300
C          7.60400        9.16700       -0.84900
O          7.84900       10.10800       -1.59900
N          8.58200        8.40500       -0.35000
H          8.30400        7.64900        0.26400
C         10.02300        8.67700       -0.44000
H         10.20400        9.69700       -0.09900
C         10.76700        7.70600        0.50300
H         10.45500        6.68000        0.29900
H         11.83300        7.77200        0.28300
C         10.60000        8.01500        2.00600
H         11.30400        7.39600        2.56200
H         10.87700        9.05500        2.17700
C          9.20900        7.77100        2.59800
O          8.36700        7.06100        2.06800
N          8.90300        8.37800        3.72000
H          9.55500        8.99200        4.16900
H          7.94700        8.30900        4.03900
C         10.59600        8.59900       -1.87100
O         11.71800        9.03600       -2.10300
N          9.82900        8.07200       -2.82600
H          8.90800        7.75800       -2.56000
C         10.11700        8.09600       -4.26600
H         11.17300        7.87300       -4.42400
C          9.28000        6.99200       -4.93600
H          9.34400        7.09200       -6.02100
H          9.71900        6.02700       -4.67800
C          7.81800        6.98900       -4.51700
C          7.38500        6.11800       -3.49600
H          8.07300        5.40500       -3.06300
C          6.05600        6.17600       -3.03600
H          5.71800        5.50900       -2.25800
C          5.15500        7.10600       -3.59800
O          3.89300        7.21200       -3.11000
H          3.84700        6.92500       -2.18200
C          5.58400        7.96200       -4.63200
H          4.88600        8.67000       -5.05300
C          6.91400        7.90300       -5.09200
H          7.24300        8.57100       -5.87700
C          9.85000        9.46700       -4.92600
O         10.18600        9.66900       -6.08600
N          9.23300       10.42400       -4.24200
H          9.07500       11.30700       -4.69500
H          8.91600       10.25700       -3.29600
