67
0 1
H          4.13900        5.64600        0.12000
C          5.09000        5.81000        0.62400
H          5.87400        5.97500       -0.11200
H          5.33600        4.94300        1.23600
C          4.98200        7.02500        1.51300
O          5.33600        6.97200        2.68400
N          4.47000        8.12500        0.96500
H          4.13500        8.07100        0.01500
C          4.30300        9.40300        1.67700
H          5.27600        9.74200        2.03600
C          3.75000       10.44500        0.69400
H          3.60000       11.38700        1.22500
H          4.49900       10.62500       -0.07900
C          2.46700       10.05100        0.02300
C          1.22600       10.34100        0.47400
H          1.01200       10.92700        1.36100
N          0.28500        9.74000       -0.34000
H         -0.71000        9.80900       -0.18600
C          0.87700        9.02100       -1.35600
C          0.36500        8.23600       -2.39900
H         -0.70100        8.10500       -2.51100
C          1.25800        7.62400       -3.29500
H          0.88000        7.01700       -4.10700
C          2.64400        7.80900       -3.14200
H          3.32400        7.34700       -3.84300
C          3.14800        8.59900       -2.08900
H          4.21300        8.74900       -1.99900
C          2.27700        9.21800       -1.16400
C          3.38400        9.30000        2.90700
O          3.54000       10.06300        3.85500
N          2.45900        8.33700        2.92100
H          2.39700        7.73000        2.11300
C          1.58000        8.01300        4.05200
H          1.15400        8.93300        4.45400
C          0.44700        7.12400        3.51800
H         -0.27100        6.93500        4.31700
H         -0.07400        7.64700        2.71500
C          0.95300        5.80400        2.98800
N          1.62100        5.62400        1.77400
C          1.99700        4.33600        1.75400
H          2.55500        3.87100        0.95200
N          1.62400        3.71800        2.88700
H          1.87200        2.77000        3.14200
C          0.96800        4.63000        3.68100
H          0.59100        4.47800        4.68400
C          2.29300        7.30400        5.21900
O          1.67000        7.07600        6.25300
N          3.56500        6.92300        5.05900
H          4.00200        7.10300        4.16300
C          4.34400        6.14800        6.03700
H          3.93200        6.34200        7.02800
C          4.17600        4.64300        5.75500
H          4.67600        4.08200        6.54400
H          3.11500        4.39300        5.79300
C          4.73800        4.21000        4.39300
H          4.22100        4.77200        3.61600
H          5.79700        4.46600        4.34100
S          4.55100        2.44500        4.00800
C          5.75700        1.73700        5.16300
H          6.73700        2.18300        4.98800
H          5.45000        1.93200        6.18900
H          5.82000        0.66000        5.00700
C          5.82500        6.57400        6.11200
O          6.66000        5.85600        6.64900
N          6.18800        7.73600        5.58300
H          7.15900        7.99500        5.62000
H          5.50300        8.31700        5.12700
