66
0 1
H          6.77700       10.09600       -9.85800
C          6.19100        9.31500       -9.37700
H          6.84800        8.62200       -8.85600
H          5.61400        8.77700      -10.12900
C          5.23800        9.94500       -8.38900
O          4.03000        9.80500       -8.52300
N          5.78300       10.63700       -7.39000
H          6.78400       10.73500       -7.36500
C          4.98900       11.38500       -6.41100
H          4.18500       10.74100       -6.05100
C          5.87500       11.75400       -5.21300
H          6.24800       10.83500       -4.76000
H          6.73700       12.31600       -5.57700
C          5.20500       12.55900       -4.14100
C          5.44100       13.86500       -3.88600
H          6.15300       14.48200       -4.42800
N          4.62400       14.29500       -2.85700
H          4.57500       15.26100       -2.54000
C          3.86200       13.26500       -2.35300
C          2.93800       13.18800       -1.30100
H          2.71300       14.06500       -0.71300
C          2.33900       11.95100       -1.00600
H          1.64200       11.86600       -0.18400
C          2.65600       10.81900       -1.78000
H          2.19600        9.86700       -1.55100
C          3.57100       10.91400       -2.84800
H          3.80700       10.03600       -3.43200
C          4.20700       12.13700       -3.15800
C          4.34600       12.62900       -7.04500
O          5.02500       13.44400       -7.66800
N          3.04100       12.81800       -6.83300
H          2.54900       12.13800       -6.26300
C          2.21500       13.91100       -7.38000
H          2.43600       14.01000       -8.44300
C          0.74000       13.50600       -7.22500
H          0.09500       14.27600       -7.64900
H          0.56500       12.58400       -7.78100
C          0.36300       13.27200       -5.78400
N          0.69600       12.13200       -5.05200
C          0.29200       12.37300       -3.79800
H          0.40800       11.67900       -2.97600
N         -0.25900       13.59500       -3.70600
H         -0.61200       14.01000       -2.85600
C         -0.21800       14.18300       -4.95100
H         -0.53400       15.18000       -5.22300
C          2.47500       15.29600       -6.74900
O          1.68100       16.21800       -6.92800
N          3.57600       15.45000       -6.01100
H          4.18400       14.64400       -5.96700
C          4.01000       16.63000       -5.24900
H          4.94500       16.35300       -4.76900
C          4.36000       17.81300       -6.17700
H          3.43900       18.32100       -6.46400
H          4.96200       18.52300       -5.60700
C          5.12100       17.45600       -7.47300
H          4.44700       16.93200       -8.15000
H          5.41300       18.38200       -7.96900
C          6.37400       16.59500       -7.29700
O          6.84800       16.20800       -6.23700
O          6.99000       16.27000       -8.44800
H          7.70000       15.68100       -8.19400
C          3.09100       17.02100       -4.07800
O          3.54200       17.06900       -2.93700
N          1.80700       17.25700       -4.30200
H          1.21500       17.50400       -3.52700
H          1.44900       17.16300       -5.24500
