73
0 1
H          2.69000        7.20700       10.44200
C          1.90500        7.96100       10.43600
H          1.53200        8.10800       11.44900
H          1.09000        7.64500        9.78800
C          2.47100        9.26700        9.93000
O          2.45300       10.26400       10.63900
N          2.96800        9.26300        8.69500
H          2.92700        8.41000        8.15700
C          3.57100       10.43200        8.04700
H          3.11300       11.33100        8.46200
C          5.07100       10.47600        8.37600
H          5.18700       10.50400        9.46100
H          5.52900        9.54900        8.02500
C          5.84100       11.63200        7.81000
C          6.85300       11.53400        6.92100
H          7.22500       10.59700        6.51900
N          7.32400       12.79400        6.60200
H          8.04700       12.97000        5.90900
C          6.70500       13.76600        7.35900
C          6.88800       15.15300        7.47100
H          7.64800       15.64700        6.88300
C          6.08900       15.87700        8.37200
H          6.23500       16.94300        8.49400
C          5.10600       15.21100        9.12800
H          4.50100       15.76900        9.83000
C          4.93200       13.81700        9.00800
H          4.20300       13.31200        9.62700
C          5.73300       13.05600        8.12800
C          3.29800       10.43600        6.53500
O          3.11900        9.38400        5.91900
N          3.26000       11.63000        5.93400
H          3.46200       12.44400        6.49300
C          2.96500       11.85800        4.50800
H          2.26200       11.09500        4.17100
C          2.27800       13.22600        4.37200
H          1.87400       13.30700        3.36200
H          1.43300       13.27400        5.06000
C          3.17000       14.40700        4.61000
C          3.49000       14.92000        5.81900
H          3.11600       14.56600        6.77100
N          4.41100       15.93400        5.66100
H          4.86000       16.38900        6.44400
C          4.72000       16.14500        4.33600
C          5.58800       17.03400        3.68500
H          6.17900       17.73400        4.25500
C          5.66700       17.00600        2.28200
H          6.32400       17.69000        1.76200
C          4.88100       16.09400        1.55500
H          4.93700       16.08000        0.47500
C          4.02300       15.19700        2.22300
H          3.43400       14.49200        1.65400
C          3.92500       15.19300        3.63200
C          4.20100       11.75000        3.59100
O          4.09700       11.96300        2.38600
N          5.36400       11.41100        4.16000
H          5.33500       11.26100        5.15800
C          6.69000       11.29300        3.53400
H          7.37900       10.98100        4.31700
C          6.73600       10.16000        2.48200
H          5.87800       10.23400        1.81500
H          7.63200       10.28600        1.87200
C          6.78200        8.74000        3.08800
H          6.58900        8.01000        2.30200
H          7.78200        8.55900        3.48200
C          5.78600        8.52700        4.22400
O          6.07000        8.62800        5.41000
O          4.50800        8.33500        3.84100
H          3.96800        8.43100        4.64200
C          7.26200       12.63700        3.05700
O          8.28600       13.07200        3.57600
N          6.60900       13.33300        2.14000
H          6.93800       14.25400        1.90000
H          5.71700       12.99300        1.80500
