66
0 1
H          6.95100       16.90300        9.42500
C          7.76200       16.67100        8.73500
H          8.10400       15.65100        8.90400
H          8.58300       17.36900        8.88900
C          7.25500       16.79700        7.31900
O          6.08700       17.11000        7.10900
N          8.13400       16.55300        6.34800
H          9.05900       16.25100        6.60800
C          7.78000       16.50300        4.92600
H          6.98500       17.22800        4.74100
C          8.98500       16.90800        4.06600
H          9.26900       17.93300        4.30800
H          9.82800       16.25800        4.30500
C          8.72000       16.80800        2.59600
C          8.17600       17.78500        1.83800
H          7.91700       18.77600        2.19000
N          7.91700       17.29500        0.57500
H          7.34200       17.78800       -0.10500
C          8.26900       15.97000        0.45500
C          8.13100       15.03800       -0.58300
H          7.70400       15.33600       -1.52800
C          8.55200       13.71400       -0.37000
H          8.45400       12.97900       -1.15700
C          9.09300       13.34400        0.87400
H          9.40800       12.32300        1.03900
C          9.21700       14.29000        1.91200
H          9.60800       13.98300        2.87200
C          8.80800       15.63000        1.73000
C          7.25000       15.12200        4.50500
O          7.76800       14.09600        4.94000
N          6.24000       15.10700        3.62900
H          5.81800       15.99700        3.40300
C          5.58900       13.89200        3.11700
H          6.36600       13.14600        2.94000
C          4.62500       13.33300        4.19300
H          4.26300       12.36000        3.85600
H          5.18000       13.15800        5.11600
C          3.39600       14.21300        4.51100
H          2.82900       14.41200        3.60300
H          2.74900       13.67200        5.20200
C          3.79000       15.53700        5.15700
O          3.94200       16.58300        4.53800
O          4.08500       15.45000        6.46900
H          4.56700       16.25800        6.71700
C          4.84500       14.07700        1.77300
O          4.18200       13.14200        1.33000
N          4.87100       15.26300        1.14600
H          5.49600       15.98400        1.47400
C          4.00500       15.58700       -0.00200
H          3.89400       14.68200       -0.60000
C          2.61300       16.04300        0.49800
H          2.69300       16.43700        1.51300
H          2.24600       16.85800       -0.12900
C          1.55500       14.92700        0.47000
H          1.84600       14.13100        1.15300
H          0.60800       15.33300        0.82500
C          1.32700       14.33500       -0.92200
O          1.71700       14.87900       -1.94500
N          0.69100       13.19000       -1.02300
H          0.40500       12.69100       -0.20100
H          0.58000       12.82700       -1.95200
C          4.58700       16.64200       -0.95700
O          5.40700       17.47700       -0.58800
N          4.13600       16.64200       -2.20300
H          4.47900       17.33600       -2.84500
H          3.40600       15.99000       -2.46800
