74
0 1
H          7.54500        3.53100        3.12800
C          8.21400        4.12400        3.75200
H          9.05300        3.50700        4.06400
H          7.67800        4.48500        4.62700
C          8.70600        5.30600        2.95500
O          8.01000        5.78100        2.06700
N          9.91300        5.78800        3.25000
H         10.46100        5.31400        3.95200
C         10.47700        7.00100        2.63300
H          9.79000        7.83100        2.80600
C         11.81300        7.33900        3.30600
H         12.22700        8.23300        2.83700
H         11.61900        7.58700        4.35000
C         12.84800        6.25400        3.27100
C         13.75500        6.06700        2.28500
H         13.85200        6.69700        1.40800
N         14.52600        4.95600        2.56900
H         15.28200        4.63800        1.97900
C         14.15300        4.36900        3.75900
C         14.62000        3.24900        4.46100
H         15.43800        2.66100        4.07200
C         14.01400        2.90700        5.68300
H         14.36600        2.05100        6.24200
C         12.95100        3.68400        6.17900
H         12.49500        3.42100        7.12500
C         12.48700        4.80500        5.46300
H         11.68700        5.40400        5.87000
C         13.07500        5.17600        4.23300
C         10.65800        6.90300        1.10700
O         10.65700        7.92400        0.42800
N         10.76200        5.69100        0.55700
H         10.73400        4.89400        1.17400
C         10.78700        5.42300       -0.88900
H         11.49200        6.10400       -1.36800
C         11.27100        3.98200       -1.09800
H         11.31900        3.77200       -2.16700
H         12.28500        3.89300       -0.70400
C         10.41300        2.94500       -0.43700
C          9.31700        2.37700       -0.98600
H          8.94700        2.58800       -1.98400
N          8.71400        1.54400       -0.06400
H          7.83500        1.07100       -0.23500
C          9.40600        1.52000        1.12700
C          9.20300        0.84400        2.33900
H          8.36200        0.17800        2.45600
C         10.11800        1.03600        3.38900
H          9.98700        0.51100        4.32600
C         11.20600        1.91100        3.21800
H         11.91000        2.05100        4.02700
C         11.39200        2.59600        2.00200
H         12.24200        3.25100        1.88100
C         10.50100        2.41100        0.92100
C          9.42600        5.62500       -1.58900
O          9.35900        5.55000       -2.81300
N          8.34300        5.84900       -0.83700
H          8.45900        5.85400        0.17000
C          6.96800        5.97400       -1.34500
H          7.01900        6.32900       -2.37500
C          6.29600        4.58800       -1.37000
H          5.31300        4.68400       -1.83000
H          6.88900        3.92100       -1.99700
C          6.14400        3.95300        0.02000
H          7.13200        3.87100        0.47300
H          5.54100        4.60700        0.65100
S          5.40300        2.29500        0.02700
C          3.68900        2.70700       -0.40100
H          3.29600        3.42900        0.31500
H          3.64800        3.13200       -1.40300
H          3.08000        1.80300       -0.37100
C          6.13300        7.02400       -0.58400
O          4.91000        7.02900       -0.65100
N          6.76200        7.93200        0.15300
H          7.76800        7.92100        0.21300
H          6.20900        8.60200        0.65900
