78
0 1
H         11.51100       10.46000       -1.57400
C         11.23900       11.51400       -1.57500
H         10.92200       11.81500       -2.57100
H         12.09800       12.11100       -1.27000
C         10.11000       11.74100       -0.59800
O         10.25900       12.50000        0.35500
N          8.97500       11.08200       -0.82800
H          8.92800       10.45900       -1.61800
C          7.81100       11.16000        0.06100
H          7.69800       12.19800        0.37700
C          6.52600       10.78200       -0.69400
H          6.51000       11.31400       -1.64600
H          6.52500        9.71300       -0.91400
C          5.27200       11.13900        0.04800
C          4.68900       10.39300        1.01400
H          5.04000        9.42200        1.34500
N          3.63300       11.08800        1.56800
H          3.14300       10.78300        2.40700
C          3.46500       12.31600        0.96800
C          2.57700       13.37700        1.19500
H          1.81900       13.29600        1.96000
C          2.69600       14.54400        0.42200
H          2.01900       15.37200        0.58300
C          3.70000       14.63600       -0.55900
H          3.78700       15.53700       -1.15100
C          4.59300       13.56700       -0.77200
H          5.36300       13.65300       -1.52400
C          4.49900       12.37900       -0.01400
C          8.01800       10.32200        1.33600
O          7.51700        9.20700        1.46000
N          8.77600       10.85300        2.29700
H          9.25000       11.72800        2.10700
C          8.95000       10.23800        3.62300
H          9.02700        9.15700        3.49800
C         10.27200       10.72800        4.22600
H         10.46300       10.15500        5.13500
H         11.08000       10.49700        3.53100
C         10.34600       12.18400        4.58000
C         10.79500       13.16900        3.76800
H         11.15300       13.02600        2.75500
N         10.72700       14.37900        4.43000
H         10.94300       15.26600        3.99400
C         10.24100       14.23400        5.71100
C         10.00600       15.14300        6.75400
H         10.24100       16.18800        6.62700
C          9.45400       14.67400        7.95800
H          9.26400       15.35900        8.77200
C          9.15200       13.30800        8.10300
H          8.73000       12.94800        9.03100
C          9.40400       12.40300        7.05200
H          9.17600       11.35500        7.18100
C          9.95500       12.84100        5.82700
C          7.75400       10.47800        4.56700
O          7.68100        9.87700        5.63700
N          6.80800       11.33600        4.16800
H          6.96900       11.80900        3.29500
C          5.61900       11.75000        4.92300
H          5.93800       11.94600        5.94800
C          5.08400       13.07900        4.34500
H          4.46500       12.86800        3.47700
H          4.43700       13.54600        5.08800
C          6.14500       14.07600        3.91100
C          6.57100       14.09800        2.56700
H          6.11100       13.43500        1.85000
C          7.58800       14.98000        2.15600
H          7.92500       14.97700        1.13100
C          8.16300       15.86600        3.09100
O          9.16500       16.70400        2.71200
H          9.25500       16.73100        1.75800
C          7.71200       15.86900        4.42700
H          8.15600       16.55200        5.13400
C          6.71700       14.96300        4.84200
H          6.40200       14.94300        5.87600
C          4.53500       10.64700        4.98500
O          3.42500       10.78800        4.47800
N          4.85100        9.49700        5.56200
H          5.79000        9.36600        5.91700
H          4.16500        8.76200        5.59200
