73
0 1
H          6.73900        3.19600       -6.54200
C          7.58900        2.60400       -6.20600
H          8.33500        2.55800       -6.99800
H          7.25500        1.60000       -5.95100
C          8.19200        3.25800       -4.98600
O          7.71300        4.29400       -4.53700
N          9.25100        2.66000       -4.44100
H          9.60800        1.82200       -4.87100
C          9.96200        3.20400       -3.28000
H          9.21900        3.54200       -2.55600
C         10.78400        2.10800       -2.59000
H         10.13300        1.25800       -2.38100
H         11.57400        1.76600       -3.26000
C         11.39200        2.55300       -1.29400
C         12.64200        3.04400       -1.14500
H         13.36100        3.15800       -1.95000
N         12.83600        3.44100        0.16200
H         13.66200        3.95400        0.46800
C         11.71400        3.21800        0.93000
C         11.40800        3.47400        2.27500
H         12.15300        3.90500        2.92700
C         10.12400        3.16500        2.75500
H          9.87500        3.34900        3.79200
C          9.16500        2.61500        1.88600
H          8.17900        2.37400        2.26200
C          9.48100        2.36900        0.53500
H          8.73700        1.94200       -0.12100
C         10.76400        2.66100        0.02200
C         10.81100        4.43200       -3.65800
O         12.01500        4.34300       -3.88500
N         10.16800        5.59900       -3.73200
H          9.15600        5.57000       -3.68400
C         10.81900        6.87800       -4.05400
H         11.39400        6.73700       -4.97100
C          9.73500        7.93200       -4.34600
H         10.21700        8.84500       -4.69900
H          9.10700        7.55500       -5.15600
C          8.83400        8.28100       -3.14500
H          8.46300        7.36900       -2.68000
H          9.40800        8.83500       -2.40400
C          7.62900        9.12600       -3.55400
O          7.54600        9.81200       -4.56200
O          6.57700        9.07300       -2.71600
H          5.92900        9.65600       -3.11300
C         11.81800        7.36800       -2.98400
O         12.62700        8.25000       -3.26000
N         11.79000        6.80700       -1.77000
H         11.11800        6.07600       -1.60100
C         12.65200        7.19700       -0.64500
H         12.83100        8.27000       -0.72500
C         11.90800        6.96700        0.68100
H         11.97900        5.91700        0.94900
H         12.40900        7.53500        1.46600
C         10.45500        7.33800        0.67300
C          9.42600        6.47600        0.84600
H          9.53500        5.41300        1.03500
N          8.23000        7.15900        0.74800
H          7.32700        6.71800        0.85300
C          8.42800        8.50100        0.50700
C          7.55200        9.57900        0.32100
H          6.48400        9.42700        0.35700
C          8.08300       10.85500        0.06400
H          7.42200       11.69700       -0.09000
C          9.47600       11.03500        0.00300
H          9.88100       12.01800       -0.19600
C         10.34700        9.94500        0.19900
H         11.41500       10.09800        0.14900
C          9.84700        8.65000        0.45700
C         14.03900        6.52500       -0.70600
O         14.47600        5.84400        0.21800
N         14.73500        6.65600       -1.82700
H         15.63200        6.20700       -1.89900
H         14.34800        7.20200       -2.58600
