71
0 1
H          4.38400        8.49500        0.62900
C          4.25300        9.49900        0.22600
H          4.66200       10.23000        0.92000
H          3.19300        9.69400        0.06800
C          4.97700        9.60600       -1.09400
O          4.37000        9.94500       -2.10300
N          6.27300        9.30200       -1.07700
H          6.67500        9.02700       -0.19100
C          7.18500        9.33500       -2.23700
H          6.61500        9.54500       -3.13900
C          8.18100       10.49200       -2.05200
H          8.94400       10.43300       -2.82900
H          7.63700       11.42200       -2.22000
C          8.86500       10.59200       -0.71600
C          8.54100       11.48400        0.24800
H          7.75700       12.22600        0.15700
N          9.37600       11.32500        1.33600
H          9.35000       11.92500        2.14700
C         10.29100       10.31600        1.12700
C         11.33400        9.80000        1.91100
H         11.54800       10.22100        2.88200
C         12.11400        8.74700        1.40100
H         12.93500        8.34500        1.98000
C         11.84000        8.23100        0.12200
H         12.45000        7.43100       -0.27600
C         10.79200        8.76100       -0.65700
H         10.61200        8.37000       -1.64900
C          9.98500        9.81600       -0.17700
C          7.87700        7.98300       -2.49400
O          8.73500        7.85600       -3.36400
N          7.50900        6.96200       -1.72000
H          6.81600        7.16500       -1.01500
C          8.16000        5.65300       -1.59800
H          9.23800        5.80300       -1.66000
C          7.83500        5.10800       -0.19400
H          6.78400        4.81600       -0.15600
H          8.44000        4.22100       -0.00200
C          8.08000        6.12600        0.89600
N          7.22000        7.18200        1.23400
C          7.89700        7.93200        2.11500
H          7.52700        8.85000        2.55300
N          9.11900        7.41900        2.33100
H          9.85800        7.86900        2.85500
C          9.25500        6.28400        1.56700
H         10.14300        5.67900        1.44800
C          7.79100        4.68100       -2.73300
O          7.41300        3.53600       -2.49400
N          7.82300        5.16500       -3.97400
H          8.16100        6.11200       -4.10300
C          7.34300        4.44100       -5.15200
H          6.39000        3.97800       -4.89300
C          7.09200        5.43300       -6.30000
H          8.06200        5.71400       -6.71500
H          6.53600        4.92300       -7.08700
C          6.34400        6.71000       -5.93300
C          6.75000        7.93500       -6.50000
H          7.57400        7.96100       -7.20000
C          6.10300        9.13400       -6.14300
H          6.42200       10.07700       -6.56000
C          5.05200        9.11500       -5.20600
O          4.49000       10.28000       -4.79600
H          4.24300       10.22900       -3.85800
C          4.63600        7.89100       -4.64100
H          3.83200        7.88400       -3.92000
C          5.27100        6.69100       -5.01500
H          4.94500        5.75900       -4.57600
C          8.30300        3.31800       -5.58100
O          9.51700        3.48300       -5.60800
N          7.77400        2.16600       -5.97300
H          8.40300        1.43200       -6.25300
H          6.77900        2.02500       -5.93600
