67
0 1
H         11.31200        9.43200        0.58100
C         11.23600        8.52800       -0.02200
H         11.39600        7.65500        0.60800
H         11.97700        8.55500       -0.81800
C          9.85300        8.45600       -0.62600
O          9.03400        9.34000       -0.39900
N          9.59400        7.40600       -1.40300
H         10.30000        6.69600       -1.50600
C          8.25900        7.13300       -1.93800
H          7.80300        8.08200       -2.21500
C          8.34500        6.29000       -3.21900
H          8.89900        6.85200       -3.97200
H          8.90900        5.38200       -3.00200
C          7.02100        5.88000       -3.80100
C          6.31000        6.57800       -4.71600
H          6.61900        7.52100       -5.15200
N          5.12600        5.91800       -4.99100
H          4.41200        6.27000       -5.61900
C          5.00400        4.76600       -4.24700
C          3.99600        3.79700       -4.15000
H          3.11100        3.87200       -4.76500
C          4.15000        2.74000       -3.23700
H          3.38100        1.98600       -3.14500
C          5.30700        2.66800       -2.44200
H          5.42300        1.85500       -1.73700
C          6.31800        3.64300       -2.55600
H          7.19900        3.57700       -1.93300
C          6.19500        4.71900       -3.46300
C          7.34900        6.46700       -0.89700
O          7.75300        5.53900       -0.20000
N          6.09200        6.90700       -0.86300
H          5.88300        7.73300       -1.41100
C          4.96100        6.24300       -0.19200
H          5.15800        5.16900       -0.17100
C          4.86100        6.73200        1.26700
H          3.99000        6.28000        1.74100
H          5.73900        6.36600        1.80000
C          4.81200        8.26000        1.45700
H          4.85700        8.46100        2.52700
H          5.71100        8.69200        1.01700
S          3.37800        9.15800        0.79100
C          2.04800        8.49200        1.82800
H          1.10900        8.98200        1.56900
H          1.94500        7.42000        1.65900
H          2.27300        8.67500        2.87800
C          3.64500        6.42000       -0.97900
O          2.55900        6.09100       -0.50500
N          3.74100        6.98400       -2.18500
H          4.67200        7.14800       -2.54200
C          2.65800        7.60000       -2.94900
H          1.94700        8.02500       -2.23900
C          3.24600        8.76100       -3.77900
H          3.78500        8.35700       -4.63600
H          2.43000        9.37500       -4.16000
C          4.21300        9.63500       -3.00900
N          5.55100        9.31700       -2.74400
C          6.01800       10.30700       -1.96600
H          7.02600       10.36000       -1.56900
N          5.05200       11.21000       -1.72900
H          5.14900       12.02200       -1.13500
C          3.90600       10.80300       -2.37600
H          2.93700       11.28200       -2.35400
C          1.89000        6.56600       -3.78700
O          1.88400        6.60500       -5.01300
N          1.27600        5.59000       -3.13500
H          0.78900        4.88400       -3.66100
H          1.36700        5.53900       -2.12800
