64
0 1
H         -0.40900        4.81500       -5.17800
C         -0.31100        4.94100       -4.10100
H         -0.74200        4.08100       -3.59200
H         -0.82400        5.84900       -3.78800
C          1.15200        5.04900       -3.74300
O          1.65000        4.24900       -2.95800
N          1.82800        6.04400       -4.30900
H          1.33000        6.68300       -4.91300
C          3.24600        6.34800       -4.08800
H          3.51500        6.03300       -3.08300
C          4.08600        5.53900       -5.09100
H          3.82400        4.48500       -4.99200
H          3.81200        5.84700       -6.10200
C          5.57300        5.66300       -4.95700
C          6.37000        4.78800       -4.30300
H          6.02300        3.88000       -3.82200
N          7.67600        5.23600       -4.33400
H          8.44800        4.73100       -3.92200
C          7.78600        6.43500       -5.00400
C          8.87000        7.28300       -5.27400
H          9.86100        7.02900       -4.93200
C          8.64600        8.46600       -5.99800
H          9.46900        9.13300       -6.21800
C          7.35000        8.78100       -6.44400
H          7.18100        9.69100       -7.00400
C          6.26900        7.92000       -6.16900
H          5.27800        8.17600       -6.51600
C          6.45700        6.72600       -5.43700
C          3.47400        7.86900       -4.22700
O          2.81100        8.47100       -5.07700
N          4.38500        8.51500       -3.46600
C          4.59200        9.95300       -3.57800
H          3.64300       10.49100       -3.57400
H          5.13800       10.16700       -4.49800
C          5.43200       10.35700       -2.37100
H          4.78400       10.54200       -1.51300
H          6.05500       11.22600       -2.58300
C          6.26700        9.10300       -2.13000
H          6.65400        9.06700       -1.11100
H          7.09100        9.07500       -2.84500
C          5.28500        7.96400       -2.44200
H          5.85600        7.13200       -2.84600
C          4.56600        7.45800       -1.18100
O          3.35200        7.57400       -1.04800
N          5.33100        6.85600       -0.26600
H          6.33100        6.85300       -0.40400
C          4.85200        6.24500        0.97800
H          3.87300        6.65700        1.23000
C          4.72900        4.71900        0.80100
H          5.64400        4.33800        0.34400
H          4.63000        4.24600        1.77900
C          3.52700        4.29600       -0.05800
H          3.59300        4.76700       -1.03800
H          3.56400        3.21800       -0.20900
C          2.17900        4.63700        0.57600
O          2.06200        4.94400        1.75200
N          1.10900        4.57400       -0.17900
H          1.21100        4.36400       -1.16700
H          0.23900        4.82900        0.24700
C          5.78700        6.57200        2.14900
O          6.96500        6.85700        1.95800
N          5.28300        6.51400        3.37400
H          5.88800        6.72100        4.15200
H          4.31500        6.26300        3.50800
