73
0 1
H         14.58000       11.75800        3.81000
C         14.60500       12.42900        2.95400
H         15.52500       12.28300        2.39100
H         14.54600       13.46100        3.29700
C         13.42000       12.14200        2.06200
O         12.59000       13.01300        1.83600
N         13.34000       10.91700        1.54600
H         14.03200       10.23700        1.81400
C         12.18100       10.45700        0.77800
H         11.85900       11.26100        0.11500
C         12.57400        9.25500       -0.09300
H         13.41700        9.54200       -0.72400
H         12.90800        8.44300        0.55500
C         11.47900        8.72900       -0.97400
C         11.31400        9.04800       -2.27700
H         11.96100        9.70600       -2.84300
N         10.18200        8.43200       -2.76700
H          9.82100        8.59600       -3.70200
C          9.54000        7.69600       -1.79600
C          8.36000        6.93800       -1.79500
H          7.78100        6.83600       -2.69900
C          7.94400        6.31500       -0.60700
H          7.03500        5.72800       -0.59000
C          8.72500        6.44000        0.55400
H          8.41400        5.94800        1.46700
C          9.92300        7.18200        0.53400
H         10.52100        7.24900        1.43100
C         10.35500        7.85000       -0.63500
C         11.00800       10.10000        1.70100
O         11.18800        9.35000        2.66000
N          9.80100       10.57400        1.37600
H          9.73500       11.22300        0.60700
C          8.54800       10.09300        1.96500
H          8.60200        9.00800        2.03800
C          8.38500       10.66800        3.39100
H          9.20900       10.31800        4.01300
H          8.44500       11.75700        3.34600
C          7.07000       10.28600        4.09600
H          7.09100       10.68700        5.10900
H          6.22600       10.74200        3.58000
C          6.84300        8.77800        4.15800
O          6.55600        8.07000        3.20100
O          6.97100        8.22400        5.37900
H          6.81700        7.28600        5.26200
C          7.35100       10.45600        1.06900
O          6.90700       11.60200        1.08000
N          6.81000        9.48900        0.32000
H          7.26500        8.58500        0.30600
C          5.57500        9.65200       -0.47800
H          5.17600       10.65300       -0.31200
C          5.87300        9.53100       -1.98400
H          6.11800        8.49300       -2.19800
H          4.95600        9.75700       -2.53000
C          6.95300       10.39700       -2.57200
C          7.33900       11.61800       -2.13400
H          6.90900       12.13700       -1.28600
N          8.36800       12.09600       -2.92100
H          8.80800       12.99200       -2.77200
C          8.67900       11.21600       -3.93400
C          9.63500       11.23600       -4.96100
H         10.31400       12.06900       -5.05700
C          9.68400       10.16500       -5.87000
H         10.40700       10.16900       -6.67600
C          8.77400        9.10000       -5.74800
H          8.80000        8.28800       -6.46400
C          7.81800        9.09200       -4.71300
H          7.11700        8.27400       -4.63300
C          7.75600       10.14100       -3.76700
C          4.44200        8.69200       -0.05800
O          3.41500        8.60700       -0.71900
N          4.58700        7.94200        1.02700
H          5.41600        8.01800        1.60100
H          3.83400        7.32500        1.28000
