71
0 1
H         10.66300        6.29900        3.22200
C         10.44800        6.31000        2.15600
H         11.33600        6.01300        1.60000
H         10.14500        7.30800        1.84700
C          9.33500        5.33400        1.85700
O          9.51800        4.41000        1.07800
N          8.17200        5.54500        2.47000
H          8.08100        6.37800        3.03000
C          6.97400        4.69800        2.32300
H          7.26700        3.65100        2.41500
C          6.00600        5.04000        3.46400
H          5.17900        4.32800        3.44500
H          6.52000        4.90800        4.41700
C          5.44300        6.43100        3.41200
C          4.28200        6.77100        2.80900
H          3.62000        6.06900        2.31300
N          4.09100        8.13600        2.89800
H          3.28200        8.60700        2.52000
C          5.13400        8.75100        3.55600
C          5.39900       10.08800        3.88800
H          4.69600       10.86400        3.62500
C          6.58000       10.39800        4.58400
H          6.79500       11.42100        4.86300
C          7.47300        9.37100        4.94100
H          8.37100        9.61200        5.49500
C          7.19400        8.03000        4.60700
H          7.87300        7.25100        4.91700
C          6.01900        7.68400        3.90100
C          6.25900        4.84900        0.96400
O          5.24200        4.20400        0.71100
N          6.75300        5.73400        0.09700
H          7.57200        6.25100        0.39600
C          6.08900        6.23300       -1.11400
H          5.08600        6.55800       -0.83600
C          6.86300        7.46500       -1.61000
H          7.84100        7.14900       -1.97500
H          6.32200        7.91800       -2.44200
C          7.06900        8.50600       -0.53300
N          7.97900        8.40500        0.52500
C          7.77300        9.48300        1.29300
H          8.30600        9.69600        2.21000
N          6.79300       10.24500        0.77900
H          6.44100       11.09400        1.19700
C          6.33200        9.64200       -0.37100
H          5.52700        9.97600       -1.01100
C          5.89600        5.19500       -2.23100
O          5.22800        5.49000       -3.21700
N          6.43000        3.98200       -2.07100
H          6.94600        3.81000       -1.22000
C          6.11300        2.81900       -2.90900
H          6.15400        3.11800       -3.95700
C          7.17900        1.73700       -2.66900
H          6.97100        0.88700       -3.32100
H          8.15200        2.13400       -2.96200
C          7.25700        1.24500       -1.23300
C          8.19000        1.81300       -0.34200
H          8.87900        2.57500       -0.68200
C          8.23000        1.39300        1.00000
H          8.94300        1.82700        1.68500
C          7.33600        0.40500        1.45900
O          7.36900        0.01800        2.76100
H          6.75400       -0.69500        2.93400
C          6.41100       -0.17600        0.56500
H          5.72600       -0.93500        0.91000
C          6.37700        0.24200       -0.77900
H          5.66300       -0.19700       -1.46400
C          4.69900        2.25200       -2.65600
O          4.21400        1.42900       -3.42400
N          4.01700        2.63900       -1.58300
H          4.43800        3.27000       -0.91400
H          3.09900        2.25700       -1.43700
