67
0 1
H          0.54200        9.53500       -2.11200
C          1.09300       10.47300       -2.13100
H          0.96400       11.00100       -1.18800
H          0.72900       11.09400       -2.94900
C          2.56000       10.18900       -2.34900
O          3.13800       10.64100       -3.32800
N          3.16400        9.43200       -1.43500
H          2.61600        9.06500       -0.67100
C          4.57500        9.03600       -1.49400
H          4.85400        8.91500       -2.54100
C          5.45200       10.15200       -0.89600
H          5.40800       11.02500       -1.54900
H          5.03900       10.43900        0.07200
C          6.89000        9.77700       -0.70000
C          7.53300        9.72100        0.48700
H          7.10000        9.99400        1.44300
N          8.80400        9.21400        0.30000
H          9.45100        9.01300        1.06400
C          9.04800        8.92400       -1.02400
C         10.14000        8.35700       -1.69400
H         11.02400        8.07100       -1.14500
C         10.06900        8.17900       -3.08600
H         10.90600        7.75300       -3.62300
C          8.91200        8.57000       -3.78400
H          8.86700        8.44300       -4.85800
C          7.81700        9.13200       -3.09900
H          6.93900        9.43500       -3.65100
C          7.85600        9.32000       -1.69900
C          4.81300        7.68200       -0.80400
O          4.06900        7.29600        0.09600
N          5.88200        6.98200       -1.19900
H          6.46600        7.39800       -1.91100
C          6.26200        5.63800       -0.73300
H          5.43600        4.95900       -0.94700
C          7.50100        5.16200       -1.51500
H          8.35000        5.79800       -1.25600
H          7.74400        4.14500       -1.20900
C          7.32900        5.18600       -3.04100
H          7.24800        6.22200       -3.36800
H          8.23300        4.77600       -3.49300
S          5.90000        4.27900       -3.70000
C          6.31300        2.58000       -3.21800
H          7.28700        2.30900       -3.62400
H          6.33200        2.49700       -2.13100
H          5.55700        1.90100       -3.61200
C          6.54800        5.51800        0.77600
O          6.65200        4.40400        1.28300
N          6.69000        6.63500        1.49800
H          6.64000        7.51300        1.00400
C          6.86000        6.67200        2.96200
H          6.99700        5.65300        3.32900
C          8.13100        7.46100        3.32500
H          7.97000        8.51500        3.10300
H          8.29900        7.37700        4.40000
C          9.39600        7.01000        2.63100
N         10.48300        7.83900        2.34400
C         11.41500        7.05000        1.79000
H         12.39200        7.38900        1.46800
N         10.97000        5.78500        1.70500
H         11.49500        5.00000        1.34800
C          9.70200        5.73700        2.24000
H          9.07000        4.86400        2.34900
C          5.62000        7.19700        3.71000
O          5.67800        7.45900        4.90400
N          4.48700        7.38400        3.04400
H          3.68700        7.71900        3.55300
H          4.42600        7.16300        2.05900
