69
0 1
H         12.14400        7.84200       -3.47300
C         11.14900        7.50400       -3.75400
H         11.09500        6.41800       -3.70100
H         10.92400        7.83200       -4.76800
C         10.13200        8.10200       -2.81000
O          9.24200        8.82300       -3.24100
N         10.26800        7.80400       -1.52000
H         11.04900        7.23200       -1.23400
C          9.39600        8.31300       -0.45700
H          9.08200        9.32500       -0.71600
C          8.13600        7.43500       -0.35500
H          7.59100        7.48200       -1.30000
H          8.43900        6.40100       -0.19300
C          7.20600        7.84100        0.74500
C          7.06900        7.20700        1.93100
H          7.58700        6.29800        2.21400
N          6.26500        7.95500        2.76600
H          6.14100        7.73800        3.74700
C          5.82300        9.10600        2.15100
C          5.03400       10.18100        2.58300
H          4.62800       10.19200        3.58300
C          4.78200       11.24200        1.69600
H          4.17100       12.07800        2.01000
C          5.32600       11.21600        0.39900
H          5.12800       12.03500       -0.28000
C          6.12600       10.13500       -0.02100
H          6.54200       10.12900       -1.01900
C          6.39200        9.05100        0.84300
C         10.13400        8.38700        0.89100
O         11.12200        7.68100        1.10100
N          9.63600        9.21800        1.81500
H          8.78600        9.71100        1.58500
C         10.09000        9.29800        3.20800
H         11.18100        9.31700        3.20500
C          9.59200       10.63000        3.81100
H          9.64900       11.39400        3.03400
H          8.54300       10.53700        4.09800
C         10.41800       11.14700        5.00700
H         11.45200       11.27500        4.68600
C          9.88000       12.51400        5.43400
H          8.84900       12.41800        5.77700
H         10.49200       12.91600        6.24100
H          9.91700       13.20600        4.59300
C         10.40400       10.23600        6.23600
H          9.37700       10.02000        6.53000
H         10.92200        9.30300        6.01900
H         10.92200       10.72000        7.06400
C          9.64700        8.04300        3.99300
O          8.66600        8.04800        4.73800
N         10.35900        6.93700        3.78100
H         11.10100        6.98800        3.09400
C         10.18000        5.69100        4.53100
H          9.11400        5.46600        4.57800
C         10.89300        4.53300        3.81500
H         11.95000        4.78000        3.70200
H         10.81800        3.63300        4.42700
C         10.30400        4.22800        2.43200
H         10.34900        5.12300        1.81100
H         10.92600        3.46600        1.96300
S          8.59600        3.61700        2.46600
C          8.37400        3.21700        0.71300
H          7.36100        2.84800        0.55100
H          8.53300        4.10800        0.10700
H          9.08800        2.44700        0.42000
C         10.69200        5.83100        5.97300
O         11.73300        6.42600        6.22500
N          9.99600        5.24700        6.93800
H         10.33200        5.33900        7.88300
H          9.13700        4.76800        6.72700
