71
0 1
H          4.07200       13.48700       -5.71000
C          4.47500       14.35200       -6.23500
H          4.12000       15.26400       -5.75800
H          4.15700       14.32800       -7.27500
C          5.98300       14.30600       -6.16900
O          6.54800       13.38900       -5.58500
N          6.63900       15.30000       -6.76800
H          6.10600       16.03000       -7.21000
C          8.10100       15.42400       -6.76100
H          8.53200       14.44300       -6.96600
C          8.55000       16.36600       -7.89100
H          8.05200       16.06200       -8.81200
H          8.22800       17.38500       -7.66900
C         10.02700       16.36700       -8.15600
C         10.95100       17.06600       -7.45900
H         10.73100       17.73100       -6.63100
N         12.21500       16.76800       -7.92700
H         13.06700       17.09200       -7.47200
C         12.17000       15.87800       -8.97600
C         13.16300       15.28000       -9.76500
H         14.20300       15.51700       -9.59900
C         12.78200       14.37900      -10.77400
H         13.53400       13.91600      -11.39900
C         11.42100       14.08400      -10.97300
H         11.13300       13.39300      -11.75400
C         10.43300       14.68300      -10.16600
H          9.39200       14.44800      -10.32900
C         10.78000       15.59500       -9.14500
C          8.61700       15.87100       -5.37900
O          8.87800       17.04800       -5.14100
N          8.76000       14.92700       -4.44700
H          8.43700       13.99100       -4.66300
C          9.35200       15.17900       -3.12400
H          8.93000       16.10400       -2.72900
C          8.96200       14.03900       -2.17000
H          9.28600       14.30700       -1.16300
H          7.87400       13.96000       -2.14300
C          9.54800       12.68400       -2.52300
C         10.82000       12.32100       -2.03600
H         11.37100       13.00300       -1.40200
C         11.37700       11.07400       -2.37900
H         12.35100       10.78700       -2.01400
C         10.66400       10.18900       -3.21200
O         11.21300        8.99500       -3.55400
H         10.65200        8.50700       -4.15600
C          9.38400       10.54600       -3.69000
H          8.83400        9.87200       -4.32800
C          8.82800       11.79300       -3.34300
H          7.84800       12.06400       -3.71200
C         10.88200       15.37200       -3.17300
O         11.48200       15.82000       -2.19800
N         11.52300       15.04200       -4.29900
H         10.96500       14.64800       -5.04300
C         12.97500       15.09000       -4.52000
H         13.45500       14.75500       -3.59900
C         13.37500       14.09800       -5.63300
H         13.07900       14.48800       -6.60400
H         14.46200       14.00500       -5.62500
C         12.77000       12.69500       -5.45900
H         13.42400       11.97400       -5.95000
H         12.75300       12.45000       -4.39700
S         11.09700       12.48100       -6.14300
C         11.49400       12.28400       -7.89800
H         12.08400       11.37900       -8.04200
H         10.57200       12.20900       -8.47500
H         12.06500       13.14200       -8.24700
C         13.48700       16.52200       -4.78600
O         14.14900       16.80100       -5.78300
N         13.14700       17.47500       -3.93100
H         13.45700       18.41700       -4.09900
H         12.58600       17.23500       -3.12300
