75
0 1
H          0.47600        4.41300        7.52800
C          1.49300        4.72200        7.29100
H          2.17600        3.89200        7.45600
H          1.77400        5.56600        7.91900
C          1.55200        5.13900        5.84000
O          0.54700        5.09000        5.14300
N          2.73500        5.54200        5.38200
H          3.52700        5.53800        6.00900
C          2.97500        6.00400        4.01200
H          2.26100        5.52100        3.34500
C          2.74300        7.51700        3.94200
H          1.70000        7.72300        4.18500
H          3.36000        8.00100        4.70100
C          3.04500        8.14600        2.61800
C          4.07900        8.97800        2.36500
H          4.81700        9.29100        3.09500
N          4.04300        9.37600        1.04500
H          4.75400        9.98100        0.63400
C          2.98100        8.81100        0.37200
C          2.53000        8.89500       -0.95300
H          3.03900        9.52900       -1.66400
C          1.40500        8.14700       -1.34100
H          1.04000        8.20300       -2.35800
C          0.74700        7.33300       -0.40200
H         -0.12600        6.76800       -0.70200
C          1.20100        7.26500        0.93000
H          0.67100        6.65600        1.64900
C          2.33000        8.00200        1.35100
C          4.38800        5.63300        3.54600
O          5.34500        5.77500        4.30200
N          4.51500        5.14100        2.30900
H          3.68500        5.05300        1.74500
C          5.78100        4.62500        1.77000
H          6.33400        4.13400        2.57400
C          5.45700        3.56400        0.70700
H          4.84400        2.78500        1.16300
H          4.86300        4.02300       -0.08600
C          6.67700        2.91000        0.08900
C          7.31400        1.84300        0.75100
H          6.93300        1.48700        1.69800
C          8.45500        1.24300        0.18500
H          8.95400        0.42700        0.68500
C          8.96500        1.71200       -1.04300
O         10.07000        1.13300       -1.58000
H         10.37100        1.59300       -2.36300
C          8.32600        2.78200       -1.70800
H          8.71300        3.14600       -2.64600
C          7.18300        3.37700       -1.14000
H          6.69700        4.19900       -1.64400
C          6.70200        5.71900        1.20400
O          7.90100        5.72900        1.47000
N          6.15200        6.65500        0.42300
H          5.15600        6.62900        0.27700
C          6.92100        7.68700       -0.28500
H          7.88400        7.25800       -0.56300
C          6.20700        8.07000       -1.59300
H          5.27800        8.58500       -1.35900
H          6.83500        8.77600       -2.13700
C          5.89500        6.89800       -2.50800
C          4.63600        6.26700       -2.44800
H          3.88000        6.62200       -1.76200
C          4.35300        5.17600       -3.29200
H          3.39000        4.68800       -3.25700
C          5.32400        4.71800       -4.20500
O          5.04100        3.66700       -5.01600
H          5.75500        3.47000       -5.62200
C          6.58600        5.35000       -4.26800
H          7.33000        5.00300       -4.96700
C          6.86800        6.43700       -3.41700
H          7.83300        6.92400       -3.46400
C          7.22700        8.89700        0.62000
O          6.78900       10.01700        0.37000
N          7.92500        8.67700        1.72500
H          8.12300        9.44900        2.34000
H          8.23300        7.73600        1.93500
