71
0 1
H         11.37700        6.11300        0.54100
C         10.75700        6.98000        0.75900
H         10.38900        7.40900       -0.17100
H         11.34100        7.72400        1.29900
C          9.58200        6.55000        1.60400
O          8.44200        6.61200        1.16100
N          9.85500        6.14400        2.84300
H         10.81100        6.18900        3.15800
C          8.84100        5.67400        3.80400
H          8.32300        4.81300        3.38100
C          9.54800        5.23800        5.09400
H          8.79900        4.87700        5.80100
H         10.20700        4.40000        4.86500
C         10.36100        6.31200        5.75400
C          9.91300        7.15600        6.71100
H          8.91700        7.13100        7.13900
N         10.90300        8.06600        7.02600
H         10.79100        8.79500        7.71600
C         12.04000        7.86200        6.27400
C         13.27600        8.52100        6.20900
H         13.47200        9.37800        6.83500
C         14.25400        8.05000        5.31700
H         15.21400        8.54500        5.25400
C         13.98800        6.92700        4.51200
H         14.75200        6.56000        3.83900
C         12.74300        6.27200        4.58600
H         12.56400        5.39700        3.97900
C         11.73200        6.73000        5.46200
C          7.76500        6.72700        4.12500
O          6.66400        6.37200        4.53600
N          8.05500        8.01100        3.89000
H          8.99200        8.22200        3.57600
C          7.12100        9.13500        4.03100
H          6.78100        9.17500        5.06700
C          7.83100       10.45900        3.68900
H          7.93400       10.54400        2.60700
H          7.18700       11.27400        4.01900
C          9.21100       10.65000        4.34000
H          9.43000       11.71800        4.35700
H          9.15700       10.31100        5.37500
S         10.61400        9.82000        3.52700
C         10.71000       10.74100        1.96700
H         10.81000       11.80700        2.17300
H         11.57900       10.40500        1.40000
H          9.81300       10.56800        1.37400
C          5.87500        9.00900        3.13800
O          4.86300        9.64200        3.42000
N          5.95000        8.21500        2.06400
H          6.82800        7.74600        1.87300
C          4.85800        7.99300        1.11000
H          4.14600        8.81300        1.20400
C          5.43100        8.04100       -0.31700
H          5.96600        7.10900       -0.50400
H          4.60400        8.09500       -1.02700
C          6.36900        9.21300       -0.57400
C          5.91800       10.53500       -0.38800
H          4.89300       10.71700       -0.09300
C          6.80300       11.61800       -0.56100
H          6.45500       12.62700       -0.40500
C          8.14500       11.37600       -0.92600
O          9.01200       12.41000       -1.07500
H          8.56000       13.25500       -1.07900
C          8.59500       10.05400       -1.12200
H          9.62100        9.88100       -1.40600
C          7.70700        8.97600       -0.94600
H          8.05300        7.96100       -1.08400
C          4.05900        6.70200        1.38000
O          3.18700        6.33300        0.60300
N          4.33300        5.98300        2.46400
H          5.04600        6.28800        3.11200
H          3.80000        5.14600        2.62800
