67
0 1
H          9.80700       13.87500        0.58000
C          9.97700       12.80000        0.60600
H         10.97000       12.59400        1.00200
H          9.89100       12.38800       -0.39800
C          8.94800       12.15400        1.50000
O          9.28400       11.61700        2.54900
N          7.68500       12.18600        1.08000
H          7.49700       12.58300        0.17200
C          6.54500       11.61900        1.82300
H          6.50600       12.07000        2.81500
C          5.25200       11.96800        1.07400
H          4.40300       11.55300        1.61900
H          5.13300       13.05300        1.06800
C          5.20500       11.48100       -0.34400
C          4.72300       10.28300       -0.74400
H          4.28000        9.54500       -0.08300
N          4.92200       10.13200       -2.10200
H          4.65000        9.30700       -2.61600
C          5.56000       11.22700       -2.64700
C          5.99400       11.53500       -3.94400
H          5.84600       10.83300       -4.75000
C          6.62500       12.76900       -4.17700
H          6.96500       13.02500       -5.17200
C          6.80500       13.67700       -3.11700
H          7.28000       14.63000       -3.30700
C          6.36600       13.35600       -1.81800
H          6.49300       14.07200       -1.02000
C          5.73800       12.11900       -1.54700
C          6.63400       10.09600        2.03100
O          5.95000        9.55300        2.89200
N          7.48100        9.40400        1.26500
H          8.01700        9.91300        0.57300
C          7.78600        7.97600        1.39900
H          6.86900        7.43000        1.62500
C          8.33900        7.49900        0.04500
H          8.44400        6.41300        0.06600
H          7.63200        7.75100       -0.74700
C          9.67900        8.11400       -0.28200
N          9.89900        9.45900       -0.59200
C         11.23300        9.61500       -0.60200
H         11.74100       10.55600       -0.76200
N         11.84900        8.45800       -0.30600
H         12.83600        8.36700       -0.06700
C         10.88300        7.49700       -0.11100
H         11.03300        6.48300        0.23400
C          8.79200        7.65400        2.52300
O          9.05300        6.47900        2.76900
N          9.40300        8.66500        3.15700
H          9.16100        9.60600        2.87200
C         10.59500        8.49600        4.00600
H         10.57800        7.49900        4.44900
C         11.81000        8.58300        3.06700
H         11.73000        7.74700        2.37500
H         11.75500        9.51400        2.49900
C         13.19700        8.49400        3.71600
H         13.37800        9.38300        4.32100
H         13.22900        7.62000        4.36700
C         14.31800        8.37400        2.68300
O         14.13600        8.45700        1.47500
N         15.54200        8.17600        3.11800
H         15.72700        8.10200        4.10200
H         16.25600        8.09900        2.41600
C         10.69500        9.48900        5.18200
O         11.39600        9.23000        6.15300
N         10.00700       10.62200        5.15000
H          9.48400       10.87700        4.32400
H         10.07600       11.24400        5.93700
