74
0 1
H          7.01000        2.01900       -4.34400
C          6.39600        2.91700       -4.35500
H          5.39100        2.67700       -4.00800
H          6.34400        3.32200       -5.36400
C          6.99800        3.94900       -3.43200
O          6.36000        4.37400       -2.47800
N          8.23400        4.35700       -3.71200
H          8.69000        3.98200       -4.52800
C          8.93300        5.39700       -2.95000
H          8.81400        5.19500       -1.88500
C         10.43200        5.33400       -3.27200
H         10.80000        4.33600       -3.02700
H         10.57600        5.48200       -4.34400
C         11.27400        6.32900       -2.53500
C         11.63200        7.54400       -3.00700
H         11.34900        7.93600       -3.97800
N         12.36900        8.21500       -2.05400
H         12.65400        9.18800       -2.16000
C         12.52500        7.46300       -0.91000
C         13.15600        7.71000        0.31700
H         13.67600        8.64200        0.48300
C         13.09700        6.73100        1.32400
H         13.58000        6.90300        2.27700
C         12.40800        5.52800        1.09100
H         12.36400        4.77700        1.86900
C         11.77500        5.29200       -0.14600
H         11.24900        4.36300       -0.31100
C         11.81800        6.25300       -1.18000
C          8.33700        6.78800       -3.23400
O          8.70000        7.45000       -4.20500
N          7.40300        7.23400       -2.39000
H          7.08000        6.60900       -1.66400
C          6.69500        8.51200       -2.56300
H          6.37200        8.58900       -3.60200
C          5.44400        8.51800       -1.67400
H          4.83800        9.38600       -1.94100
H          4.84900        7.63100       -1.89400
C          5.70800        8.56300       -0.19800
C          5.77500        9.69300        0.54000
H          5.62700       10.69600        0.15200
N          6.10900        9.38000        1.84200
H          6.26600       10.08100        2.55300
C          6.30000        8.02600        2.00500
C          6.68300        7.24000        3.10200
H          6.89000        7.70000        4.05600
C          6.78500        5.84800        2.94100
H          7.07400        5.22400        3.77600
C          6.49700        5.26400        1.69400
H          6.55900        4.19000        1.57800
C          6.11700        6.06400        0.59900
H          5.87500        5.59500       -0.34300
C          6.02400        7.46900        0.72000
C          7.56500        9.75100       -2.28000
O          7.24400       10.84200       -2.74600
N          8.67200        9.60500       -1.54000
H          8.88100        8.67800       -1.20400
C          9.61500       10.68600       -1.20900
H          9.03800       11.59600       -1.04200
C         10.36000       10.36400        0.10200
H         10.88700        9.42100       -0.01500
H         11.09900       11.14000        0.29900
C          9.44000       10.24200        1.32300
H          8.72000        9.44700        1.13300
H         10.04600        9.93100        2.17400
S          8.53100       11.74500        1.79600
C          9.89100       12.82200        2.32300
H          9.48200       13.75500        2.71100
H         10.46900       12.33000        3.10500
H         10.53900       13.04500        1.47500
C         10.57800       11.00200       -2.37500
O         11.79700       11.02200       -2.22300
N         10.05600       11.20100       -3.57700
H          9.05100       11.17100       -3.68900
H         10.67000       11.38800       -4.35200
