74
0 1
H         10.48400        6.84900       -2.92600
C         11.21700        7.56200       -3.29500
H         10.81500        8.09300       -4.15600
H         12.12500        7.03200       -3.57900
C         11.55000        8.55800       -2.21200
O         12.71100        8.89400       -2.02200
N         10.53400        9.02500       -1.48700
H          9.61500        8.65300       -1.66300
C         10.65600       10.09400       -0.48000
H         11.04400       10.98900       -0.96900
C          9.25600       10.41800        0.06700
H          9.35100       11.18900        0.83200
H          8.66300       10.84500       -0.74300
C          8.49600        9.26200        0.65400
C          7.49200        8.59400        0.03900
H          7.10000        8.83200       -0.94200
N          7.04600        7.57100        0.85300
H          6.28500        6.95300        0.60900
C          7.74300        7.52600        2.04000
C          7.67700        6.67500        3.15300
H          6.97100        5.86000        3.17800
C          8.54400        6.90000        4.23600
H          8.50900        6.25500        5.10400
C          9.44900        7.97500        4.19600
H         10.10600        8.15400        5.03700
C          9.50400        8.82400        3.07300
H         10.19900        9.65200        3.06600
C          8.66600        8.61300        1.95600
C         11.63500        9.77700        0.66500
O         12.16600       10.69400        1.28600
N         11.92400        8.49700        0.91600
H         11.46600        7.79400        0.35600
C         12.93100        8.03700        1.88000
H         12.75000        8.52400        2.83900
C         12.76700        6.52400        2.07200
H         13.55800        6.15700        2.72800
H         11.82000        6.34700        2.58400
C         12.76500        5.71900        0.80700
C         13.86100        5.23400        0.18300
H         14.87800        5.35700        0.54000
N         13.48400        4.58000       -0.97500
H         14.14100        4.13300       -1.59700
C         12.11700        4.61400       -1.15500
C         11.26500        4.09900       -2.14400
H         11.67000        3.54000       -2.97400
C          9.88000        4.31000       -2.03000
H          9.20700        3.90800       -2.77600
C          9.36900        5.04100       -0.94200
H          8.30200        5.19400       -0.85100
C         10.23400        5.55500        0.04400
H          9.83100        6.08900        0.89200
C         11.62900        5.34900       -0.03400
C         14.38000        8.38600        1.48500
O         15.28100        8.22300        2.30200
N         14.61900        8.88600        0.26700
H         13.85000        8.93800       -0.39200
C         15.89500        9.49600       -0.13300
H         16.70500        8.82000        0.14100
C         15.88900        9.64300       -1.66700
H         15.81400        8.64400       -2.09900
H         15.01100       10.21000       -1.97800
C         17.13600       10.32100       -2.24800
H         17.98700       10.11400       -1.59900
H         17.34800        9.87800       -3.22200
S         16.97000       12.11300       -2.48900
C         18.68400       12.62000       -2.19700
H         19.34200       12.12400       -2.91100
H         18.76800       13.70000       -2.31500
H         18.97500       12.34700       -1.18200
C         16.17300       10.83300        0.59000
O         17.32300       11.23400        0.73500
N         15.15700       11.52800        1.08800
H         14.21100       11.18100        1.01200
H         15.36000       12.38400        1.57400
