76
0 1
H         -0.72300        5.80700       -2.97700
C         -0.81900        6.57600       -2.21300
H         -1.18600        6.13800       -1.28700
H         -1.51300        7.34400       -2.55300
C          0.53000        7.20900       -1.96900
O          0.69100        8.40700       -2.16600
N          1.50000        6.39900       -1.54400
H          1.28000        5.42300       -1.42900
C          2.88200        6.81700       -1.26800
H          2.85500        7.74500       -0.69500
C          3.55800        5.74700       -0.38900
H          2.87800        5.49400        0.42600
H          3.70600        4.83900       -0.97500
C          4.86600        6.13900        0.23400
C          6.07000        6.10600       -0.38000
H          6.23200        5.78400       -1.40200
N          7.04400        6.59900        0.46500
H          7.98300        6.82200        0.15100
C          6.52500        6.91900        1.69900
C          7.09600        7.44000        2.87100
H          8.16000        7.61900        2.92200
C          6.26600        7.72600        3.96800
H          6.69100        8.12000        4.88200
C          4.88100        7.49800        3.87500
H          4.24500        7.71400        4.72400
C          4.31900        6.97300        2.69400
H          3.25600        6.79600        2.63700
C          5.12500        6.66800        1.57300
C          3.65500        7.11000       -2.57100
O          4.49200        6.32600       -3.01500
N          3.34400        8.23200       -3.22700
H          2.57400        8.78300       -2.86100
C          3.97300        8.64100       -4.49300
H          3.91900        7.80000       -5.18600
C          3.15100        9.81100       -5.07000
H          2.12200        9.47500       -5.20500
H          3.14200       10.61900       -4.33800
C          3.66100       10.38300       -6.40700
H          4.67500       10.76100       -6.28300
C          3.64500        9.34400       -7.53100
H          3.94800        9.81200       -8.46700
H          4.35400        8.54700       -7.30800
H          2.64600        8.92400       -7.64200
C          2.77000       11.55200       -6.83000
H          2.78200       12.32200       -6.05900
H          3.14500       11.98200       -7.75800
H          1.74600       11.20900       -6.98100
C          5.46700        8.99000       -4.32800
O          6.26400        8.80200       -5.24300
N          5.85600        9.45900       -3.14200
H          5.14300        9.54400       -2.43300
C          7.23000        9.76000       -2.72200
H          7.77000       10.16800       -3.57800
C          7.17600       10.85600       -1.64100
H          8.18000       11.02800       -1.25100
H          6.85600       11.78400       -2.11700
C          6.23900       10.58700       -0.50000
C          6.59800       10.08400        0.70000
H          7.61400        9.82900        0.97900
N          5.47200        9.85600        1.46600
H          5.50200        9.35300        2.34700
C          4.32000       10.16700        0.78100
C          2.95900       10.03100        1.08600
H          2.65300        9.61400        2.03300
C          2.00400       10.44000        0.13900
H          0.94800       10.33400        0.34800
C          2.42300       10.99100       -1.08500
H          1.68100       11.30900       -1.80500
C          3.79400       11.12300       -1.37900
H          4.10200       11.55500       -2.31900
C          4.77900       10.69200       -0.46300
C          8.00100        8.48600       -2.30200
O          8.66500        8.42300       -1.27000
N          7.90500        7.42100       -3.08700
H          7.35200        7.47900       -3.93200
H          8.39600        6.58200       -2.83500
