75
0 1
H         11.22600        1.50800        1.24100
C         11.09000        1.81100        0.20500
H         10.39100        1.13500       -0.28700
H         12.04500        1.78300       -0.31700
C         10.53600        3.21400        0.15900
O          9.42700        3.42400       -0.32600
N         11.30100        4.17500        0.67700
H         12.21900        3.92800        1.01100
C         10.96300        5.59900        0.61500
H          9.89400        5.70100        0.44500
C         11.27100        6.29300        1.94600
H         10.78800        5.74000        2.75300
H         12.34700        6.28100        2.12700
C         10.78000        7.70700        1.98400
C         11.43100        8.77900        1.47500
H         12.41600        8.74600        1.01900
N         10.62200        9.89400        1.56300
H         10.85200       10.79900        1.15200
C          9.41400        9.60200        2.15400
C          8.27900       10.37400        2.44000
H          8.26800       11.42800        2.20300
C          7.16700        9.75800        3.03700
H          6.28400       10.33800        3.27000
C          7.20500        8.38400        3.33700
H          6.34700        7.91400        3.80000
C          8.35000        7.61700        3.04100
H          8.36500        6.56300        3.27500
C          9.48400        8.20600        2.44000
C         11.69500        6.29900       -0.53500
O         12.92400        6.32500       -0.55800
N         10.94500        6.93000       -1.44300
H          9.94000        6.85500       -1.36600
C         11.48200        7.61500       -2.63000
H         12.53200        7.84800       -2.45200
C         11.41400        6.67100       -3.84800
H         10.37500        6.58700       -4.16800
H         11.96900        7.12200       -4.67200
C         11.96500        5.27400       -3.61100
C         11.08700        4.18200       -3.46600
H         10.02000        4.32900       -3.55200
C         11.59500        2.89800       -3.19500
H         10.92600        2.05900       -3.07600
C         12.98500        2.70100       -3.07200
O         13.47000        1.46300       -2.79300
H         14.42400        1.43300       -2.86600
C         13.86800        3.79200       -3.22500
H         14.93200        3.65000       -3.12000
C         13.35500        5.07600       -3.49500
H         14.02600        5.91800       -3.58600
C         10.77800        8.96100       -2.89400
O         10.65400        9.39400       -4.03800
N         10.23700        9.59100       -1.84400
H         10.41500        9.21600       -0.92400
C          9.15500       10.57800       -1.96300
H          9.00300       10.79900       -3.02000
C          7.83900        9.96600       -1.43800
H          7.77800       10.15500       -0.36700
H          6.99900       10.48200       -1.90400
C          7.68300        8.46700       -1.66900
C          7.61700        7.59400       -0.56500
H          7.58300        7.99600        0.43800
C          7.60100        6.20000       -0.76000
H          7.55400        5.52900        0.08600
C          7.64400        5.67100       -2.06600
O          7.71400        4.32900       -2.25400
H          8.18400        3.89300       -1.52200
C          7.67300        6.54300       -3.17300
H          7.70500        6.12800       -4.17000
C          7.69200        7.93800       -2.97600
H          7.75400        8.60000       -3.82900
C          9.48300       11.91200       -1.27300
O         10.25000       11.97400       -0.31600
N          8.88300       13.00600       -1.72400
H          9.09400       13.88200       -1.27500
H          8.25500       12.95500       -2.50900
