71
0 1
H          8.93500       10.96200       -8.54600
C          9.15700        9.91900       -8.76500
H          9.23700        9.35400       -7.83800
H         10.09500        9.85500       -9.31400
C          8.05100        9.33600       -9.61100
O          8.31300        8.83000      -10.69400
N          6.81800        9.40600       -9.10900
H          6.73400        9.82700       -8.19600
C          5.57900        8.84400       -9.68500
H          4.77200        9.09800       -8.99700
C          5.23400        9.53800      -11.01100
H          5.24600       10.61800      -10.85600
H          5.99800        9.30400      -11.75400
C          3.89800        9.17000      -11.57900
C          3.68800        8.32000      -12.61000
H          4.47000        7.81000      -13.15800
N          2.33200        8.19200      -12.83800
H          1.94100        7.59300      -13.55000
C          1.59500        8.95400      -11.95700
C          0.21700        9.15100      -11.78300
H         -0.49200        8.64600      -12.42200
C         -0.22700       10.01300      -10.76600
H         -1.28500       10.17700      -10.61600
C          0.70900       10.66200       -9.94000
H          0.36300       11.32400       -9.15800
C          2.09100       10.45500      -10.12300
H          2.79800       10.96000       -9.48300
C          2.57000        9.59500      -11.13600
C          5.52700        7.30700       -9.79100
O          4.52300        6.71700       -9.40100
N          6.60600        6.63200      -10.20400
H          7.40500        7.17300      -10.51900
C          6.69900        5.15900      -10.23100
H          5.90100        4.77500      -10.86700
C          8.05000        4.74200      -10.84200
H          8.04000        3.66200      -10.99100
H          8.14600        5.19900      -11.82800
C          9.27100        5.09600      -10.00300
C         10.02600        6.24600      -10.30300
H          9.76400        6.85800      -11.15500
C         11.12300        6.60700       -9.49700
H         11.69000        7.49600       -9.72900
C         11.47500        5.80700       -8.38900
O         12.52500        6.15200       -7.60000
H         13.04400        6.86000       -7.98100
C         10.73700        4.64100       -8.10300
H         11.02200        4.02700       -7.26100
C          9.64400        4.28200       -8.91400
H          9.08200        3.38300       -8.69100
C          6.52500        4.50700       -8.84400
O          6.22000        3.32200       -8.74500
N          6.74000        5.28000       -7.77600
H          6.99900        6.23500       -7.96100
C          6.58200        4.89900       -6.36900
H          6.59900        3.81000       -6.30400
C          7.78900        5.42000       -5.55800
H          7.56300        5.38300       -4.49200
H          8.62200        4.73700       -5.72700
C          8.28300        6.83300       -5.92200
H          9.07700        7.10500       -5.22500
H          8.73700        6.78800       -6.91300
S          7.05400        8.17300       -5.93600
C          6.66100        8.27800       -4.16800
H          5.92500        9.06500       -4.00600
H          6.24900        7.33200       -3.81900
H          7.56500        8.50800       -3.60300
C          5.22100        5.31700       -5.77000
O          5.00700        5.20500       -4.56900
N          4.27800        5.81200       -6.56400
H          3.39500        6.06600       -6.15600
H          4.43700        5.90200       -7.55900
