81
0 1
H          8.71600        5.56200       -1.39100
C          8.39500        6.52000       -0.98800
H          7.37800        6.73500       -1.31300
H          9.06200        7.30600       -1.33700
C          8.44300        6.46500        0.51900
O          9.23700        7.17000        1.12800
N          7.60700        5.61500        1.11400
H          6.94700        5.13800        0.51800
C          7.43400        5.49700        2.57700
H          8.26900        5.97900        3.08900
C          6.15000        6.23600        2.97700
H          6.02500        6.17000        4.05900
H          6.26600        7.29300        2.73100
C          4.90500        5.73000        2.31100
C          4.11400        4.73700        2.77600
H          4.27100        4.21000        3.71100
N          3.09600        4.49400        1.87300
H          2.37000        3.80800        2.02500
C          3.18300        5.32200        0.77500
C          2.41100        5.45400       -0.38900
H          1.55000        4.82300       -0.54900
C          2.76700        6.42900       -1.33700
H          2.17700        6.55300       -2.23600
C          3.88400        7.25300       -1.11100
H          4.14600        8.01100       -1.83700
C          4.65700        7.10500        0.05800
H          5.50400        7.75400        0.22900
C          4.32900        6.13400        1.02900
C          7.38100        4.05000        3.09800
O          7.54200        3.81100        4.29100
N          7.17800        3.06300        2.22100
H          7.08300        3.30600        1.24800
C          7.04700        1.63400        2.56200
H          6.34100        1.53700        3.38800
C          6.46200        0.89800        1.34900
H          6.46300       -0.17700        1.53400
H          5.41900        1.20000        1.24000
C          7.15800        1.18000        0.05300
C          8.21600        0.49900       -0.43800
H          8.67200       -0.36200        0.04100
N          8.62900        1.07800       -1.62300
H          9.39600        0.72200       -2.17700
C          7.85800        2.17400       -1.94900
C          7.87900        3.08000       -3.02000
H          8.61100        2.97900       -3.80700
C          6.92000        4.10700       -3.06300
H          6.90900        4.80500       -3.89000
C          5.96700        4.22200       -2.03500
H          5.22000        5.00400       -2.08300
C          5.96100        3.31400       -0.95900
H          5.20100        3.39700       -0.19500
C          6.90300        2.26300       -0.89300
C          8.34900        0.96400        3.04700
O          8.34700       -0.22300        3.35800
N          9.45400        1.70800        3.13300
H          9.38100        2.68200        2.88500
C         10.68600        1.30000        3.81800
H         10.89800        0.25300        3.59500
C         11.83600        2.16200        3.27400
H         12.74800        1.92400        3.82500
H         12.00800        1.88800        2.23300
C         11.60500        3.64400        3.34600
C         11.17100        4.41300        2.32200
H         10.97200        4.05900        1.31800
N         10.99900        5.71100        2.75800
H         10.62100        6.45500        2.17100
C         11.31700        5.84800        4.09000
C         11.28900        6.93900        4.97000
H         10.96700        7.90900        4.62300
C         11.68900        6.75100        6.30400
H         11.67700        7.58000        6.99700
C         12.11300        5.48000        6.73400
H         12.42500        5.33800        7.75900
C         12.13300        4.39000        5.84100
H         12.46200        3.42100        6.18700
C         11.72700        4.54200        4.49600
C         10.58800        1.41500        5.35300
O         11.43600        0.89100        6.06400
N          9.58400        2.09400        5.89900
H          8.90700        2.56600        5.31600
H          9.55000        2.16900        6.90100
