66
0 1
H         17.98000        6.67100       -5.47800
C         17.51500        5.71700       -5.23500
H         18.13000        5.18000       -4.51400
H         17.40100        5.11800       -6.13600
C         16.15400        5.97300       -4.63300
O         15.72600        7.11500       -4.53800
N         15.47600        4.90000       -4.23500
H         15.90900        3.99800       -4.39600
C         14.12600        4.93300       -3.64000
H         14.02700        5.85400       -3.06200
C         13.07800        4.97700       -4.76800
H         12.08000        4.88100       -4.33800
H         13.12200        5.97000       -5.21900
C         13.22000        3.96500       -5.87200
C         13.68300        4.24700       -7.11100
H         13.99300        5.23400       -7.43700
N         13.68000        3.10500       -7.88600
H         13.94600        3.09600       -8.86000
C         13.22200        2.01600       -7.17700
C         13.06000        0.66200       -7.51200
H         13.29600        0.31400       -8.50700
C         12.56700       -0.22700       -6.54300
H         12.41700       -1.27100       -6.78700
C         12.24100        0.24900       -5.26100
H         11.83600       -0.43100       -4.52200
C         12.40700        1.61000       -4.93700
H         12.12200        1.96000       -3.95600
C         12.91400        2.53200       -5.88000
C         13.85600        3.78500       -2.64900
O         12.73900        3.63500       -2.15500
N         14.86100        2.95100       -2.37200
H         15.76200        3.14500       -2.78900
C         14.76000        1.73300       -1.57100
H         13.78800        1.27500       -1.76400
C         15.85200        0.73600       -2.00400
H         16.83900        1.17300       -1.84400
H         15.77200       -0.14200       -1.36200
C         15.72500        0.25700       -3.46500
H         16.33700       -0.63700       -3.58400
H         14.69100       -0.02800       -3.65600
C         16.17500        1.25900       -4.53300
O         16.81100        2.27300       -4.28800
N         15.83900        1.03000       -5.77900
H         16.09600        1.73300       -6.44700
H         15.18000        0.30200       -6.00200
C         14.85300        2.01900       -0.06300
O         15.72000        2.75900        0.39600
N         13.97400        1.38800        0.71600
H         13.26900        0.83100        0.24700
C         13.77600        1.60800        2.15500
H         13.91700        2.67000        2.35800
C         12.31700        1.24900        2.53500
H         12.09500        0.23500        2.19800
H         12.22600        1.26400        3.62200
C         11.25100        2.21900        1.98300
H         10.26500        1.89500        2.31800
H         11.43400        3.20900        2.40100
C         11.22500        2.32000        0.45800
O         11.36500        1.37200       -0.30800
O         11.11700        3.57700       -0.01100
H         11.40900        3.55500       -0.93800
C         14.82700        0.86700        3.01300
O         14.50400        0.10000        3.91200
N         16.10900        1.05100        2.72700
H         16.80000        0.56700        3.27500
H         16.36400        1.68900        1.98400
