66
0 1
H         -4.89500       15.47100       -1.01200
C         -4.09000       16.16000       -1.26000
H         -3.84500       16.76500       -0.38800
H         -4.39200       16.80900       -2.08000
C         -2.86600       15.37700       -1.67100
O         -1.81900       15.49300       -1.04700
N         -2.99400       14.56700       -2.72000
H         -3.87700       14.54400       -3.20200
C         -1.86000       13.83900       -3.29600
H         -1.27100       13.43300       -2.47300
C         -2.36400       12.65600       -4.13900
H         -2.93800       11.98400       -3.49900
H         -3.03200       13.03500       -4.91500
C         -1.26700       11.87000       -4.78700
C         -1.04600       11.76400       -6.11800
H         -1.66500       12.20000       -6.89400
N          0.13100       11.07300       -6.33200
H          0.60000       11.00500       -7.23700
C          0.69500       10.64400       -5.15400
C          1.87300        9.94300       -4.86200
H          2.51800        9.61100       -5.66300
C          2.20000        9.69000       -3.51900
H          3.10200        9.14400       -3.27500
C          1.35200       10.14700       -2.49400
H          1.60500        9.94400       -1.46200
C          0.17500       10.86000       -2.80100
H         -0.46600       11.19800       -2.00100
C         -0.18300       11.12800       -4.14100
C         -0.92700       14.75900       -4.10600
O         -1.37700       15.71400       -4.73500
N          0.36600       14.42400       -4.16600
H          0.66000       13.60900       -3.64900
C          1.40400       15.18100       -4.89000
H          1.33400       16.22000       -4.56200
C          2.79300       14.66700       -4.46300
H          3.55000       15.21400       -5.02600
H          2.94700       14.88600       -3.40500
C          2.99000       13.15900       -4.68900
H          2.51700       12.61400       -3.87500
H          2.52400       12.86000       -5.62500
C          4.46100       12.76400       -4.74400
O          5.03200       12.31800       -5.72900
O          5.16200       12.99000       -3.61600
H          6.05500       12.70100       -3.80900
C          1.25000       15.22600       -6.43200
O          2.02100       15.91200       -7.09900
N          0.25500       14.53800       -7.00500
H         -0.29100       13.94600       -6.39900
C         -0.23700       14.73600       -8.38200
H          0.12700       15.70300       -8.73200
C          0.30700       13.66600       -9.35500
H         -0.02900       12.67600       -9.04800
H         -0.12600       13.86400      -10.33700
C          1.83300       13.68800       -9.54700
H          2.06200       13.27800      -10.53100
H          2.18900       14.71800       -9.53400
C          2.60200       12.85100       -8.53100
O          2.18200       11.78200       -8.11600
N          3.75800       13.30100       -8.10000
H          4.08100       14.21000       -8.37600
H          4.26800       12.72700       -7.43500
C         -1.77900       14.84400       -8.43900
O         -2.41800       14.43700       -9.40100
N         -2.42800       15.34200       -7.39500
H         -1.92300       15.67900       -6.58400
H         -3.43000       15.41400       -7.45000
