65
0 1
H          9.75600        9.12600        7.72900
C          9.68200        9.82900        6.90000
H         10.68100       10.12700        6.58600
H          9.11300       10.70300        7.21300
C          8.97800        9.15800        5.74500
O          8.62100        7.98900        5.84300
N          8.79100        9.90100        4.65600
H          9.16900       10.83400        4.65800
C          8.22700        9.41200        3.39100
H          7.53700        8.59300        3.60600
C          7.41900       10.54100        2.73100
H          6.51800       10.71400        3.32100
H          8.01300       11.45600        2.77300
C          7.02800       10.34600        1.29400
C          5.85400        9.84300        0.84700
H          5.04200        9.51100        1.48400
N          5.84900        9.83300       -0.53600
H          5.08500        9.48200       -1.10500
C          7.02700       10.32600       -1.05200
C          7.49100       10.51600       -2.36100
H          6.85200       10.28600       -3.20000
C          8.79300       11.00300       -2.56100
H          9.17000       11.15200       -3.56400
C          9.60700       11.29600       -1.45300
H         10.61100       11.66700       -1.60800
C          9.12300       11.11800       -0.14200
H          9.76000       11.35000        0.70000
C          7.81800       10.63300        0.09500
C          9.30600        8.86100        2.44300
O         10.43000        9.35400        2.39800
N          8.93000        7.84700        1.66200
H          8.00800        7.47100        1.84700
C          9.73300        7.19300        0.61500
H         10.51300        7.88200        0.28800
C         10.39900        5.90400        1.15900
H          9.65900        5.10300        1.18700
H         11.16300        5.60400        0.43900
C         11.07200        5.99400        2.54300
H         11.73200        5.13700        2.66900
H         11.68500        6.89400        2.59100
C         10.08300        5.98700        3.71000
O          8.90200        5.65200        3.64100
O         10.59600        6.42400        4.87400
H          9.83100        6.63300        5.43300
C          8.88600        6.82100       -0.62400
O          9.40200        6.29300       -1.60700
N          7.56500        7.01300       -0.55800
H          7.20900        7.53400        0.23300
C          6.57100        6.42500       -1.45700
H          6.95200        5.46600       -1.81400
C          5.26200        6.14600       -0.68300
H          4.87200        7.07400       -0.26400
H          4.52500        5.76900       -1.39400
C          5.39900        5.09300        0.43900
H          4.40400        4.81300        0.78300
H          5.87100        4.19900        0.03100
C          6.19200        5.56700        1.65800
O          6.31800        6.73800        2.00200
O          6.82400        4.58300        2.32700
H          7.41400        4.99400        2.98500
C          6.36000        7.30300       -2.70300
O          5.31500        7.92400       -2.88200
N          7.37100        7.40400       -3.55400
H          7.26900        7.99400       -4.36200
H          8.24600        6.94600       -3.33800
