74
0 1
H         -3.76800       12.83400        0.96700
C         -3.37900       12.15400        1.72300
H         -3.85600       11.18000        1.63100
H         -3.57000       12.56300        2.71400
C         -1.88800       12.00300        1.53600
O         -1.11800       12.32600        2.43000
N         -1.47800       11.50300        0.37200
H         -2.16700       11.30000       -0.33200
C         -0.06300       11.41700        0.00100
H          0.49500       11.04500        0.86100
C          0.12200       10.41600       -1.14900
H         -0.08300        9.41100       -0.77700
H         -0.61500       10.63900       -1.92300
C          1.48000       10.41900       -1.79000
C          1.73300       10.71400       -3.08600
H          0.97600       10.97500       -3.81700
N          3.09000       10.63500       -3.32800
H          3.50400       10.79600       -4.23600
C          3.79000       10.30800       -2.18700
C          5.15600       10.13500       -1.92200
H          5.88600       10.25300       -2.70800
C          5.56000        9.80900       -0.61600
H          6.60900        9.67900       -0.38700
C          4.59700        9.64900        0.39600
H          4.91400        9.40000        1.39900
C          3.22600        9.81100        0.11400
H          2.50100        9.67500        0.90300
C          2.78500       10.14900       -1.18500
C          0.51900       12.78900       -0.36600
O         -0.08300       13.54500       -1.12800
N          1.73300       13.06900        0.11600
H          2.17300       12.40300        0.73400
C          2.54200       14.21200       -0.30000
H          2.27200       14.46300       -1.32700
C          2.22400       15.43300        0.57800
H          1.17900       15.70800        0.43300
H          2.35800       15.16600        1.62800
C          3.10700       16.65200        0.27400
H          2.71300       17.50400        0.82700
H          4.10900       16.45300        0.65500
S          3.26500       17.12800       -1.47400
C          1.53100       17.40700       -1.92500
H          1.09100       18.14800       -1.25800
H          1.48100       17.77000       -2.95200
H          0.97300       16.47200       -1.85500
C          4.02700       13.83900       -0.28400
O          4.55800       13.37600        0.72200
N          4.69600       14.06000       -1.41300
H          4.19800       14.53100       -2.15600
C          6.08600       13.69300       -1.70400
H          6.29200       12.73000       -1.23300
C          6.21000       13.51300       -3.22700
H          7.25300       13.33300       -3.49200
H          5.65400       12.61900       -3.50800
C          5.67300       14.64900       -4.04900
C          6.40200       15.68000       -4.52700
H          7.47100       15.79500       -4.38000
N          5.57300       16.57200       -5.18100
H          5.90200       17.43100       -5.59600
C          4.25400       16.17200       -5.12900
C          3.06000       16.73900       -5.59800
H          3.07500       17.67700       -6.13100
C          1.84500       16.07600       -5.35200
H          0.91400       16.50300       -5.69800
C          1.84000       14.86100       -4.64300
H          0.90100       14.36300       -4.44000
C          3.04600       14.29600       -4.18600
H          3.02300       13.36600       -3.64000
C          4.28600       14.93600       -4.41700
C          7.11200       14.68500       -1.11400
O          8.10200       15.04300       -1.74300
N          6.89000       15.16500        0.10200
H          6.09900       14.82300        0.62900
H          7.54900       15.81800        0.49000
