70
0 1
H          1.34200        9.24000       -5.27700
C          1.37200        8.94900       -4.22800
H          0.88100        7.98700       -4.09300
H          0.87100        9.70500       -3.62500
C          2.81200        8.84500       -3.78400
O          3.23200        9.55600       -2.88000
N          3.57000        7.95100       -4.41700
H          3.16500        7.44000       -5.18200
C          5.01700        7.84200       -4.20400
H          5.21500        7.96000       -3.13700
C          5.49800        6.44500       -4.61700
H          4.91100        5.69900       -4.07900
H          5.30900        6.30900       -5.68300
C          6.95100        6.17700       -4.36100
C          7.45300        5.60400       -3.24500
H          6.86000        5.25000       -2.41000
N          8.83100        5.55300       -3.32800
H          9.42000        5.17500       -2.60100
C          9.28900        6.10000       -4.50700
C         10.57300        6.27600       -5.04100
H         11.44200        5.94400       -4.49500
C         10.70800        6.88300       -6.30100
H         11.68700        7.01500       -6.73700
C          9.56600        7.31500       -6.99800
H          9.67700        7.78700       -7.96500
C          8.28100        7.13000       -6.45200
H          7.41100        7.46300       -7.00100
C          8.10800        6.51100       -5.19400
C          5.78200        8.95500       -4.93800
O          5.37400        9.39500       -6.01200
N          6.91500        9.38800       -4.37900
H          7.24600        8.93700       -3.53800
C          7.75800       10.45200       -4.92700
H          7.64600       10.45600       -6.01200
C          7.24600       11.80200       -4.36900
H          6.15700       11.75500       -4.30000
H          7.62400       11.94100       -3.35500
C          7.56600       13.04100       -5.22500
H          7.18200       12.89300       -6.23400
H          7.06000       13.90200       -4.78900
C          9.05200       13.35700       -5.29800
O          9.71100       13.29600       -6.32700
O          9.63400       13.58700       -4.10400
H         10.59500       13.50500       -4.21800
C          9.24000       10.16300       -4.60200
O          9.54800        9.59900       -3.55200
N         10.16000       10.55400       -5.48900
H          9.85500       11.04600       -6.31600
C         11.60800       10.41200       -5.31100
H         11.83500        9.35500       -5.17300
C         12.33500       10.90600       -6.57600
H         12.18200       11.98100       -6.67600
H         13.40600       10.74900       -6.44100
C         11.90900       10.24400       -7.87400
C         10.87400       10.80900       -8.64800
H         10.39600       11.72500       -8.32400
C         10.47100       10.19400       -9.84900
H          9.67800       10.62900      -10.43700
C         11.11500        9.01600      -10.28600
O         10.73300        8.41400      -11.44200
H         10.03100        8.89400      -11.88200
C         12.16100        8.46000       -9.52100
H         12.64900        7.56300       -9.87000
C         12.56000        9.07700       -8.31900
H         13.36800        8.65400       -7.73900
C         12.11100       11.19200       -4.08200
O         12.06500       12.42000       -4.04000
N         12.62800       10.50100       -3.07600
H         12.94400       11.00800       -2.26600
H         12.60000        9.49600       -3.09100
