70
0 1
H         -2.87600        9.72800       -6.70000
C         -2.42400        8.75100       -6.86700
H         -1.80600        8.78500       -7.76300
H         -3.20700        8.00400       -6.98500
C         -1.56600        8.39500       -5.67700
O         -1.46800        9.16900       -4.73000
N         -0.93400        7.22200       -5.72000
H         -1.04800        6.64200       -6.53500
C         -0.04300        6.75100       -4.65400
H         -0.50700        7.01100       -3.70200
C          0.06700        5.21900       -4.68800
H         -0.93700        4.79400       -4.71300
H          0.57900        4.91300       -5.60200
C          0.78600        4.64900       -3.47900
C          2.04800        4.03700       -3.61900
H          2.51000        3.96400       -4.59400
C          2.71700        3.53100       -2.48700
H          3.69100        3.07300       -2.57800
C          2.13200        3.65200       -1.20900
O          2.82000        3.25800       -0.10800
H          2.67300        3.87600        0.62600
C          0.87400        4.27300       -1.06700
H          0.43900        4.37200       -0.08300
C          0.19800        4.75800       -2.20300
H         -0.77400        5.21800       -2.08900
C          1.32000        7.46900       -4.69100
O          2.33000        6.93600       -5.14500
N          1.33500        8.70700       -4.19500
H          0.43800        9.08600       -3.91200
C          2.47600        9.63600       -4.15900
H          2.81100        9.82200       -5.18000
C          1.96400       10.95800       -3.56700
H          2.79000       11.67000       -3.52200
H          1.21900       11.37600       -4.24700
C          1.35100       10.85200       -2.19800
C          0.02900       10.70800       -1.94500
H         -0.74700       10.67900       -2.70400
N         -0.17600       10.59500       -0.58500
H         -1.09200       10.49800       -0.16900
C          1.00800       10.66400        0.11600
C          1.31500       10.60200        1.48400
H          0.52500       10.48900        2.21400
C          2.65400       10.72800        1.89200
H          2.90800       10.71600        2.94500
C          3.66300       10.90100        0.92800
H          4.69300       11.01300        1.24200
C          3.34400       10.95200       -0.44400
H          4.13100       11.09800       -1.17300
C          2.00800       10.83700       -0.89000
C          3.71000        9.13700       -3.38100
O          4.76100        9.76700       -3.43700
N          3.59900        8.01900       -2.65900
H          2.71800        7.53400       -2.69400
C          4.71100        7.36300       -1.95900
H          5.40400        8.12400       -1.59600
C          4.15100        6.60100       -0.74700
H          3.40900        5.90000       -1.11700
H          4.95000        6.03800       -0.26100
C          3.48900        7.52200        0.29100
H          4.26100        8.09100        0.80800
H          2.82500        8.21900       -0.21400
C          2.64000        6.78200        1.32100
O          2.55300        5.56200        1.41400
O          1.94300        7.61400        2.13500
H          2.10100        8.53200        1.90400
C          5.52500        6.41700       -2.86700
O          6.57100        5.92400       -2.46500
N          5.08000        6.13000       -4.08600
H          4.21100        6.52100       -4.42200
H          5.63500        5.51900       -4.66100
