65
0 1
H         -7.84200        4.74900        2.65000
C         -7.59600        4.08300        1.82600
H         -7.58700        4.63700        0.88900
H         -8.33800        3.28700        1.76700
C         -6.23600        3.47000        2.05700
O         -6.11500        2.25500        2.15200
N         -5.21200        4.31400        2.18700
H         -5.40100        5.30100        2.13200
C         -3.80500        3.89900        2.33200
H         -3.51800        3.34400        1.43700
C         -2.92100        5.15500        2.41800
H         -1.87800        4.84300        2.48800
H         -3.02300        5.71800        1.49000
C         -3.23700        6.07000        3.59100
C         -4.06900        7.19400        3.40900
H         -4.45300        7.43200        2.42700
C         -4.39000        8.02200        4.50300
H         -5.02400        8.88400        4.36300
C         -3.87400        7.72600        5.78400
O         -4.17900        8.51500        6.84700
H         -4.66300        9.30100        6.59300
C         -3.03500        6.60800        5.96300
H         -2.63900        6.39700        6.94600
C         -2.71100        5.78700        4.86700
H         -2.05800        4.93500        5.01100
C         -3.53800        2.96700        3.53000
O         -2.57800        2.20100        3.50500
N         -4.40200        2.98400        4.55300
H         -5.15700        3.64800        4.50800
C         -4.35300        2.08000        5.70800
H         -3.37700        2.19200        6.18100
C         -5.44300        2.54000        6.69800
H         -5.27100        3.59100        6.93400
H         -6.41100        2.46200        6.20100
C         -5.52400        1.75400        8.02400
H         -5.75800        0.71000        7.82200
C         -4.22700        1.83800        8.83100
H         -3.42400        1.33300        8.29500
H         -3.95500        2.87900        9.00500
H         -4.35900        1.33300        9.78800
C         -6.65100        2.33300        8.88100
H         -6.73800        1.76000        9.80500
H         -6.44500        3.37500        9.12400
H         -7.59600        2.26500        8.34300
C         -4.49300        0.59000        5.32200
O         -4.05900       -0.27600        6.07400
N         -5.04100        0.28200        4.14100
H         -5.38000        1.03700        3.55500
C         -5.09100       -1.07800        3.59300
H         -5.47700       -1.73500        4.37500
C         -6.09100       -1.08000        2.41800
H         -7.05100       -0.71100        2.78500
H         -5.73700       -0.37900        1.66000
C         -6.34100       -2.43100        1.72100
H         -7.11500       -2.28800        0.96800
H         -5.44500       -2.75800        1.19700
C         -6.81200       -3.52800        2.67300
O         -7.99400       -3.74500        2.90300
O         -5.82100       -4.25000        3.25700
H         -4.94200       -3.89200        3.05200
C         -3.70600       -1.63200        3.18300
O         -3.58700       -2.82100        2.89300
N         -2.65300       -0.82500        3.12700
H         -2.74000        0.15200        3.37600
H         -1.76000       -1.21700        2.88000
