64
0 1
H          3.32200       13.50900        5.04200
C          4.24100       14.02300        5.31600
H          4.44700       13.86500        6.37400
H          4.14400       15.08900        5.11900
C          5.38700       13.46900        4.50400
O          6.34800       12.94500        5.06700
N          5.28900       13.58000        3.17800
H          4.49900       14.05600        2.77600
C          6.38600       13.17500        2.30100
H          6.77100       12.23700        2.69300
C          5.93000       12.87900        0.86600
H          5.17200       12.09500        0.88300
H          5.48700       13.77700        0.43300
C          7.10100       12.42100        0.01000
C          7.64000       11.13200        0.19800
H          7.17200       10.44700        0.89300
C          8.81800       10.74800       -0.47100
H          9.24200        9.76800       -0.30700
C          9.45600       11.65100       -1.34600
O         10.61700       11.30100       -1.95800
H         11.06200       10.58100       -1.48700
C          8.90900       12.93500       -1.55000
H          9.41100       13.62100       -2.21500
C          7.73800       13.32100       -0.86800
H          7.34700       14.32300       -0.99300
C          7.53300       14.19400        2.30600
O          7.34200       15.37300        2.01400
N          8.73700       13.70000        2.58300
H          8.75500       12.72900        2.87100
C         10.02000       14.40400        2.43300
H          9.95400       15.04400        1.55200
C         10.26600       15.31200        3.65600
H         11.22600       15.81500        3.54400
H          9.50200       16.09100        3.65000
C         10.20700       14.62200        5.03100
H         10.25400       15.40100        5.79200
H          9.23600       14.13900        5.13500
S         11.49200       13.39700        5.42700
C         12.97600       14.43900        5.42400
H         13.83900       13.84000        5.71400
H         13.14600       14.84300        4.42600
H         12.85200       15.25900        6.13200
C         11.19500       13.43800        2.17700
O         12.35100       13.85300        2.10000
N         10.91400       12.13600        2.06400
H          9.93900       11.86200        2.03900
C         11.88800       11.04800        2.06500
H         12.72200       11.33400        2.70700
C         11.24800        9.77700        2.67100
H         10.47400        9.39600        2.00200
H         12.02700        9.01500        2.73300
C         10.65100        9.96000        4.08900
H         10.51000        8.97400        4.53200
H         11.36300       10.50100        4.71000
C          9.29400       10.67300        4.12300
O          8.61900       10.82800        3.12000
N          8.84900       11.19000        5.24700
H          9.40400       11.16000        6.08200
H          7.95900       11.68200        5.21600
C         12.45500       10.83700        0.64900
O         12.12300        9.88500       -0.05300
N         13.26400       11.77200        0.17300
H         13.44200       12.59800        0.72900
H         13.60900       11.68400       -0.76800
