71
0 1
H          3.74400       19.00400      -10.34700
C          4.18200       19.99900      -10.40300
H          3.47100       20.74000      -10.04300
H          4.45400       20.22200      -11.43400
C          5.42700       20.04500       -9.54800
O          6.51100       20.30400      -10.05400
N          5.26900       19.78800       -8.25200
H          4.34600       19.56900       -7.90900
C          6.35500       19.79500       -7.26800
H          7.27600       19.46300       -7.75000
C          6.57500       21.23000       -6.74900
H          7.08900       21.81200       -7.51600
H          5.60400       21.69800       -6.58000
C          7.36200       21.30000       -5.45000
C          8.77000       21.27800       -5.46800
H          9.30100       21.28300       -6.41000
C          9.48700       21.23300       -4.25500
H         10.56600       21.20800       -4.25400
C          8.79700       21.20000       -3.02500
O          9.48600       21.11100       -1.86100
H          8.94400       20.72000       -1.15900
C          7.38700       21.22700       -3.00800
H          6.86200       21.20300       -2.06600
C          6.67400       21.28500       -4.21900
H          5.59100       21.28200       -4.20700
C          6.06300       18.84200       -6.10100
O          4.93100       18.77200       -5.62200
N          7.10900       18.18400       -5.59200
H          8.00200       18.27600       -6.05700
C          7.15100       17.61000       -4.24700
H          6.62800       18.28200       -3.56600
C          6.44500       16.24600       -4.21100
H          5.42000       16.36600       -4.56400
H          6.95300       15.56700       -4.89800
C          6.39000       15.61200       -2.85300
C          7.21300       14.63600       -2.41200
H          8.00600       14.18600       -2.99600
N          6.91400       14.33100       -1.09900
H          7.45000       13.67300       -0.55000
C          5.84900       15.07300       -0.63600
C          5.16500       15.10800        0.59000
H          5.44600       14.43600        1.38800
C          4.10000       16.01100        0.75400
H          3.54400       16.03500        1.68200
C          3.74900       16.87600       -0.29900
H          2.92300       17.56400       -0.17600
C          4.44500       16.83300       -1.52500
H          4.15200       17.48600       -2.33600
C          5.50600       15.92400       -1.73000
C          8.60300       17.47700       -3.76400
O          9.50000       17.15400       -4.54300
N          8.83200       17.67800       -2.46600
H          8.05300       17.96800       -1.89000
C         10.08900       17.38800       -1.75800
H         10.92300       17.76200       -2.35300
C         10.10800       18.13300       -0.40400
H         10.74700       17.61000        0.30900
H         10.55400       19.11500       -0.56000
C          8.73900       18.33700        0.19800
N          7.89900       19.42200       -0.07800
C          6.70200       19.09800        0.43200
H          5.81300       19.71200        0.35700
N          6.74200       17.87400        0.98100
H          5.93300       17.34900        1.28900
C          8.01700       17.37500        0.83700
H          8.36000       16.37500        1.07000
C         10.29600       15.86800       -1.61100
O         10.08100       15.27100       -0.56100
N         10.69300       15.20400       -2.68700
H         10.85100       14.21300       -2.61500
H         10.77700       15.69600       -3.56700
