66
0 1
H          9.06000       11.70600       -3.24900
C          7.99800       11.90600       -3.11300
H          7.42000       11.37400       -3.86500
H          7.81600       12.97700       -3.20100
C          7.57700       11.44700       -1.73800
O          7.11600       12.25100       -0.93100
N          7.73600       10.15300       -1.46400
H          8.16000        9.55800       -2.15800
C          7.47500        9.57700       -0.14400
H          6.83900       10.26000        0.41200
C          6.68700        8.26600       -0.26800
H          5.86400        8.40900       -0.97000
H          7.33200        7.48100       -0.66500
C          6.11900        7.83100        1.06900
C          4.79100        8.16100        1.40400
H          4.15500        8.65700        0.68300
C          4.29100        7.85800        2.68500
H          3.27800        8.11300        2.95900
C          5.12300        7.23300        3.63500
O          4.66500        7.01600        4.89200
H          5.40000        7.04600        5.52700
C          6.44700        6.88800        3.29400
H          7.07800        6.40400        4.02600
C          6.94100        7.17700        2.00800
H          7.95800        6.90900        1.74900
C          8.77300        9.38500        0.65300
O          9.65700        8.65100        0.21800
N          8.86700       10.00600        1.83300
H          8.11800       10.63300        2.10200
C         10.00200        9.90000        2.76700
H         10.56500        8.99300        2.53800
C         10.95200       11.11200        2.60400
H         10.44800       12.01400        2.95500
H         11.79200       10.94000        3.27800
C         11.52200       11.36300        1.19100
H         11.57600       10.42500        0.64000
C         10.68800       12.37900        0.40000
H         11.10400       12.49200       -0.60100
H          9.66000       12.04000        0.31000
H         10.69800       13.34500        0.90500
C         12.93900       11.93400        1.28100
H         13.33000       12.11500        0.28000
H         12.93400       12.86700        1.84400
H         13.59000       11.21700        1.78200
C          9.53000        9.76800        4.23400
O         10.27900       10.04800        5.16600
N          8.25200        9.43700        4.44500
H          7.71900        9.09500        3.66100
C          7.49600        9.94800        5.59600
H          8.10200       10.71800        6.07800
C          6.22500       10.65400        5.09000
H          5.49700        9.90200        4.78300
H          5.79000       11.23600        5.90200
C          6.49200       11.57400        3.91800
N          7.41200       12.62100        3.91500
C          7.42000       13.11300        2.66800
H          8.04500       13.93200        2.33400
N          6.57100       12.42300        1.88900
H          6.45600       12.57100        0.88500
C          5.97200       11.44900        2.66200
H          5.25100       10.70900        2.34300
C          7.19900        8.88200        6.65800
O          6.82500        7.75300        6.35300
N          7.30700        9.23300        7.93100
H          7.62100       10.15700        8.17800
H          7.11000        8.54000        8.63400
