63
0 1
H          7.42200       11.68600       -5.88800
C          6.97500       12.67800       -5.92400
H          6.50900       12.82700       -6.89700
H          7.74000       13.43300       -5.75400
C          5.92100       12.77900       -4.84800
O          5.70200       11.83000       -4.10500
N          5.27300       13.93800       -4.74800
H          5.54200       14.67600       -5.37800
C          4.29000       14.25800       -3.69800
H          4.56800       13.71400       -2.79400
C          4.37000       15.76100       -3.38100
H          3.93100       16.31500       -4.21200
H          3.76500       15.96700       -2.49700
C          5.77500       16.28000       -3.12500
C          6.35500       17.22400       -3.99800
H          5.79200       17.59900       -4.84200
C          7.66500       17.68900       -3.77000
H          8.10500       18.41300       -4.43700
C          8.39900       17.20800       -2.66400
O          9.66300       17.65000       -2.43500
H          9.93300       18.32000       -3.06300
C          7.81900       16.26500       -1.79100
H          8.39000       15.90500       -0.94800
C          6.50900       15.80400       -2.02000
H          6.06800       15.08100       -1.34700
C          2.83700       13.85100       -4.02300
O          1.93900       14.05400       -3.20800
N          2.57600       13.28900       -5.20800
H          3.36400       13.06200       -5.80800
C          1.22700       13.03700       -5.74300
H          0.65600       13.95300       -5.57900
C          1.29600       12.83500       -7.27500
H          0.30200       13.02900       -7.68200
H          1.96600       13.58300       -7.70200
C          1.72800       11.43800       -7.76300
H          0.96600       10.71300       -7.47800
H          1.78100       11.44400       -8.85100
C          3.08000       10.98800       -7.22300
O          4.01100       11.76400       -7.07700
N          3.21600        9.73300       -6.86300
H          4.04900        9.48800       -6.33900
H          2.46400        9.08000       -6.97100
C          0.42700       11.92800       -5.02600
O         -0.68500       11.61800       -5.44200
N          0.95900       11.33200       -3.95400
H          1.88300       11.62400       -3.65900
C          0.20000       10.47600       -3.03400
H         -0.42300        9.79900       -3.62000
C          1.15400        9.62900       -2.16700
H          1.69400       10.27100       -1.47000
H          0.53300        8.96400       -1.56300
C          2.14200        8.73800       -2.95100
H          2.47300        7.94700       -2.27900
H          1.61900        8.27100       -3.78600
C          3.40900        9.41900       -3.48000
O          4.16700        8.90600       -4.29100
O          3.64900       10.67100       -3.03400
H          4.49500       10.96000       -3.43600
C         -0.74600       11.27900       -2.11600
O         -1.63100       10.70800       -1.49200
N         -0.58000       12.59200       -1.99100
H          0.17100       13.06200       -2.47800
H         -1.21000       13.09700       -1.39100
