60
0 1
H          4.16400        6.73600        1.35800
C          4.10600        6.66900        0.27300
H          3.86900        5.64700       -0.01800
H          5.05800        6.96800       -0.16200
C          3.01800        7.59500       -0.21700
O          2.37200        8.26200        0.57900
N          2.81500        7.63100       -1.53200
H          3.35900        7.02100       -2.12300
C          1.79100        8.44600       -2.19600
H          0.92700        8.49800       -1.53400
C          2.32800        9.87700       -2.40400
H          1.48200       10.54700       -2.55100
H          2.82400       10.21300       -1.49200
C          3.28100       10.05000       -3.57500
C          2.81200       10.57100       -4.79800
H          1.77500       10.85200       -4.91100
C          3.69700       10.74100       -5.87900
H          3.34800       11.14300       -6.81900
C          5.05500       10.39100       -5.74100
O          5.89800       10.53100       -6.79500
H          6.69400        9.98700       -6.68100
C          5.52500        9.86100       -4.52000
H          6.56600        9.59100       -4.41800
C          4.63800        9.69700       -3.43800
H          5.00300        9.30800       -2.49700
C          1.35400        7.79600       -3.53000
O          1.99200        6.82900       -3.95800
N          0.29800        8.29700       -4.21000
C         -0.71400        9.18800       -3.65400
H         -0.46400       10.22200       -3.89500
H         -0.82900        9.06800       -2.57700
C         -2.01300        8.79700       -4.34900
H         -2.74000        9.61000       -4.33900
H         -2.42600        7.89700       -3.89000
C         -1.52400        8.48800       -5.76000
H         -1.41900        9.43100       -6.29800
H         -2.20900        7.82400       -6.28900
C         -0.15300        7.82200       -5.52900
H         -0.31100        6.74600       -5.45400
C          0.84500        8.06700       -6.68700
O          0.58100        8.83000       -7.61400
N          2.00700        7.41200       -6.64500
H          2.17800        6.84900       -5.81900
C          3.09100        7.50600       -7.63000
H          3.20700        8.55900       -7.89100
C          4.39600        7.04400       -6.95200
H          4.49700        7.58900       -6.01300
H          4.33300        5.98100       -6.71500
C          5.65300        7.30700       -7.80100
H          5.75100        6.54800       -8.57600
H          5.56800        8.28000       -8.28600
C          6.91500        7.31000       -6.94700
O          7.52100        8.33000       -6.63800
O          7.28900        6.08500       -6.49900
H          6.72600        5.39800       -6.85400
C          2.77100        6.74900       -8.93900
O          3.43800        5.78900       -9.30800
N          1.72000        7.13900       -9.64600
H          1.49500        6.64600      -10.49300
H          1.15400        7.90700       -9.30600
