75
0 1
H          8.61900       11.11200        2.41800
C          8.16800       10.22800        1.96900
H          7.52700       10.52500        1.14100
H          7.58600        9.69500        2.71800
C          9.26500        9.32500        1.45700
O         10.43900        9.64300        1.59800
N          8.87700        8.20600        0.84600
H          7.89000        8.04400        0.72100
C          9.79600        7.17900        0.34600
H         10.80000        7.60000        0.28300
C          9.83600        5.98300        1.30800
H          8.88900        5.44600        1.23000
H         10.61800        5.30500        0.96700
C         10.09700        6.30400        2.76900
C          9.14700        5.95200        3.74900
H          8.22100        5.47500        3.46000
C          9.40200        6.22000        5.10800
H          8.68000        5.95900        5.86800
C         10.60400        6.85100        5.49000
O         10.84200        7.10700        6.80100
H         11.65200        7.60300        6.92800
C         11.55700        7.20000        4.50900
H         12.47900        7.68400        4.79500
C         11.30300        6.92300        3.15300
H         12.03100        7.19900        2.40200
C          9.40100        6.69200       -1.05200
O          8.21900        6.63600       -1.38700
N         10.38300        6.25300       -1.84200
H         11.33000        6.28500       -1.49500
C         10.16800        5.65300       -3.16800
H          9.53500        6.31600       -3.76000
C         11.52600        5.51900       -3.87200
H         11.36200        5.10000       -4.86700
H         11.94600        6.51600       -4.00900
C         12.54000        4.67800       -3.15300
C         12.80800        3.38100       -3.42300
H         12.33600        2.80300       -4.21100
N         13.76000        2.91000       -2.54000
H         14.13000        1.97000       -2.57000
C         14.13300        3.87700       -1.63100
C         15.01200        3.87600       -0.53900
H         15.55600        2.98100       -0.27600
C         15.17500        5.05500        0.20800
H         15.84900        5.07300        1.05300
C         14.47300        6.21800       -0.15700
H         14.62100        7.12900        0.40800
C         13.59700        6.21100       -1.26000
H         13.09800        7.12500       -1.54400
C         13.38800        5.03300       -2.01400
C          9.45000        4.29200       -3.10600
O          8.81900        3.89100       -4.07800
N          9.51200        3.60000       -1.96400
H         10.09000        3.96700       -1.22500
C          8.71800        2.40200       -1.65600
H          8.49100        1.88900       -2.59100
C          9.57000        1.44400       -0.80500
H          8.97100        0.57500       -0.53100
H         10.38500        1.07400       -1.42900
C         10.16500        2.04900        0.45600
C         11.51300        2.45700        0.46700
H         12.12000        2.33600       -0.41700
C         12.07800        3.01000        1.63100
H         13.10900        3.33000        1.64700
C         11.29200        3.16300        2.79100
O         11.83100        3.73700        3.89700
H         11.18100        4.25800        4.37600
C          9.94000        2.75600        2.78300
H          9.34200        2.86500        3.67500
C          9.38000        2.19600        1.61700
H          8.34800        1.86700        1.61600
C          7.35100        2.71900       -1.00700
O          6.68000        1.83100       -0.49300
N          6.90800        3.97000       -0.97800
H          6.00800        4.14500       -0.56300
H          7.43900        4.71900       -1.40000
