70
0 1
H         13.69500        1.87700        7.54200
C         12.68000        1.67000        7.87700
H         12.47000        2.21900        8.79300
H         12.56400        0.60200        8.05600
C         11.70400        2.09500        6.80500
O         10.95200        1.27300        6.29700
N         11.72000        3.38000        6.46100
H         12.38600        3.99400        6.90600
C         10.85900        3.97800        5.43700
H         10.67300        3.23800        4.65700
C          9.51100        4.36400        6.06600
H          9.03700        3.46600        6.46500
H          9.69400        5.03700        6.90500
C          8.54200        5.02600        5.10400
C          8.32400        6.41700        5.16200
H          8.83700        7.01400        5.90400
C          7.43700        7.03200        4.25600
H          7.26500        8.09500        4.30800
C          6.77700        6.25400        3.28000
O          5.91600        6.83700        2.40500
H          5.84700        7.78300        2.54000
C          7.00200        4.86300        3.22000
H          6.49200        4.27900        2.46900
C          7.88100        4.25000        4.13300
H          8.04700        3.18100        4.08900
C         11.54400        5.18900        4.78500
O         12.33500        5.87500        5.43100
N         11.23300        5.45300        3.51300
H         10.50200        4.90300        3.08000
C         11.74700        6.57000        2.71300
H         12.04300        7.38300        3.37700
C         12.96500        6.12300        1.87600
H         12.66100        5.26200        1.27700
H         13.22400        6.92500        1.18300
C         14.23300        5.74700        2.66700
H         14.00000        4.97600        3.40000
C         15.28200        5.18400        1.70800
H         14.88500        4.30100        1.20700
H         15.55200        5.93200        0.96200
H         16.17200        4.89500        2.26600
C         14.85000        6.95500        3.37700
H         15.76700        6.65300        3.88100
H         15.07600        7.74300        2.65800
H         14.16200        7.33500        4.13100
C         10.63900        7.10200        1.79300
O          9.75600        6.35100        1.38200
N         10.69800        8.38900        1.44500
H         11.47200        8.95100        1.76900
C          9.71100        9.05300        0.58900
H          9.35700        8.34000       -0.15700
C          8.51600        9.48700        1.45100
H          8.17200        8.62800        2.02600
H          8.84600       10.24500        2.16300
C          7.33600       10.01300        0.66000
C          7.07200       11.39600        0.60800
H          7.70800       12.09000        1.14300
C          5.98200       11.87900       -0.14300
H          5.78000       12.93900       -0.18200
C          5.15400       10.97400       -0.84400
O          4.10100       11.42900       -1.57100
H          3.98500       12.37600       -1.48900
C          5.42300        9.59100       -0.79200
H          4.78200        8.90800       -1.32900
C          6.51300        9.11100       -0.04100
H          6.71400        8.04700       -0.00100
C         10.33400       10.24400       -0.15700
O         11.33400       10.80600        0.27700
N          9.75800       10.65600       -1.27800
H         10.16800       11.43600       -1.76500
H          8.91300       10.21500       -1.60400
