63
0 1
H         12.36500        7.69500        0.57800
C         11.76300        8.49900        0.99600
H         12.35200        9.41400        1.05000
H         11.42400        8.22400        1.99400
C         10.56100        8.73600        0.11500
O         10.40200        9.82200       -0.43300
N          9.71000        7.72100       -0.00700
H          9.91400        6.88000        0.52000
C          8.44700        7.76800       -0.76500
H          8.33600        8.74900       -1.22900
C          8.50200        6.71800       -1.88600
H          7.63100        6.85300       -2.53000
H          9.38500        6.90100       -2.50100
C          8.52200        5.28000       -1.39200
C          7.31100        4.61300       -1.11500
H          6.36800        5.11900       -1.28300
C          7.32400        3.30000       -0.60800
H          6.39400        2.79900       -0.38600
C          8.55500        2.64700       -0.38400
O          8.57800        1.39100        0.13300
H          7.73900        0.94300        0.01600
C          9.76600        3.30600       -0.68000
H         10.70100        2.79300       -0.51400
C          9.74900        4.62200       -1.18000
H         10.67800        5.13000       -1.39900
C          7.20500        7.54900        0.11800
O          6.07900        7.79200       -0.31200
N          7.39400        7.07300        1.35000
H          8.35200        6.93700        1.65000
C          6.34300        6.62800        2.26800
H          5.70200        5.91900        1.74200
C          7.00200        5.90200        3.45600
H          7.68300        6.57700        3.97800
H          6.20800        5.63400        4.15500
C          7.74000        4.59900        3.07800
H          7.75400        3.96400        3.96400
H          7.17700        4.06800        2.31000
C          9.19300        4.75500        2.61400
O          9.69400        5.82100        2.28800
N          9.94300        3.67800        2.55500
H         10.88300        3.80900        2.22800
H          9.55600        2.76900        2.73600
C          5.42700        7.76800        2.75200
O          4.31500        7.51000        3.20200
N          5.86800        9.02100        2.62100
H          6.81700        9.14100        2.28700
C          5.07000       10.23200        2.83800
H          4.51400       10.09600        3.76700
C          6.01400       11.44000        3.03300
H          5.40800       12.25900        3.42400
H          6.75300       11.20200        3.80000
C          6.73600       11.97200        1.77400
H          6.02700       12.09900        0.95700
H          7.13400       12.96000        2.00500
C          7.91000       11.12200        1.28400
O          8.32200       10.10200        1.82400
O          8.49100       11.57600        0.15700
H          9.22700       10.97300       -0.06100
C          4.01900       10.50400        1.73800
O          3.24800       11.44900        1.84700
N          3.97800        9.73800        0.65300
H          3.28200        9.93700       -0.04500
H          4.62800        8.97200        0.53600
