63
0 1
H          8.00200       -4.22600        1.79600
C          8.00800       -4.27500        0.70700
H          7.63100       -5.24400        0.38500
H          9.02200       -4.12900        0.34100
C          7.11500       -3.18500        0.16400
O          6.53100       -2.42900        0.92800
N          7.01200       -3.10700       -1.16100
H          7.49400       -3.79100       -1.72400
C          6.16900       -2.14300       -1.87700
H          5.26300       -1.98100       -1.29100
C          6.89100       -0.78800       -2.00700
H          6.16500       -0.04200       -2.33300
H          7.24000       -0.47300       -1.02200
C          8.06600       -0.77500       -2.96700
C          9.29800       -1.33900       -2.58000
H          9.41500       -1.75100       -1.58700
C         10.37500       -1.37800       -3.48500
H         11.31500       -1.83100       -3.20800
C         10.22500       -0.83700       -4.77700
O         11.22300       -0.97200       -5.68500
H         10.87400       -1.31100       -6.52200
C          9.00800       -0.22600       -5.14800
H          8.92000        0.21400       -6.12900
C          7.92700       -0.20000       -4.24700
H          6.99400        0.26800       -4.53500
C          5.74000       -2.70500       -3.24400
O          6.27000       -3.71300       -3.71300
N          4.77700       -2.04800       -3.89500
H          4.46900       -1.16200       -3.51600
C          4.05800       -2.52500       -5.09000
H          3.62200       -3.50000       -4.86800
C          2.91600       -1.53300       -5.36700
H          2.26000       -1.95500       -6.12900
H          2.32600       -1.39000       -4.46100
C          3.41700       -0.19200       -5.84200
N          4.24200        0.67100       -5.11500
C          4.55900        1.66800       -5.95800
H          5.21500        2.49300       -5.71400
N          3.99200        1.46500       -7.15900
H          4.19400        1.99300       -8.00500
C          3.25900        0.30300       -7.10100
H          2.72800       -0.17400       -7.91400
C          4.91200       -2.71300       -6.36000
O          4.42600       -3.27800       -7.33500
N          6.16500       -2.25100       -6.36700
H          6.48500       -1.79600       -5.52500
C          7.14600       -2.44600       -7.44700
H          6.81500       -3.28100       -8.06700
C          7.21900       -1.19500       -8.35100
H          7.38500       -0.31600       -7.72900
H          8.06100       -1.29400       -9.03700
C          5.95800       -0.97000       -9.19900
H          5.85900       -1.78300       -9.91800
H          5.07800       -0.96400       -8.56500
C          6.01300        0.35700       -9.95200
O          5.34900        1.35100       -9.68500
O          6.90500        0.41000      -10.96000
H          6.83300        1.29000      -11.32900
C          8.52200       -2.87000       -6.88700
O          9.57100       -2.50900       -7.41500
N          8.55700       -3.58300       -5.76700
H          7.69900       -3.83800       -5.29500
H          9.45400       -3.82400       -5.37900
