68
0 1
H         13.14000        8.67700       11.88900
C         12.45700        7.87700       11.60600
H         11.49600        8.02800       12.09300
H         12.87700        6.91700       11.89900
C         12.26800        7.90300       10.10700
O         12.84800        8.74000        9.42600
N         11.45100        6.98500        9.59400
H         10.98400        6.34300       10.21600
C         11.13000        6.87200        8.16800
H         11.12400        7.87400        7.73400
C         12.21800        6.04500        7.46300
H         13.19700        6.34100        7.84400
H         12.08300        4.98900        7.70200
C         12.23200        6.22900        5.95900
C         11.47700        5.38100        5.12600
H         10.91200        4.56300        5.55100
C         11.45100        5.60600        3.73600
H         10.88000        4.95800        3.09200
C         12.19000        6.67000        3.17600
O         12.12300        6.92600        1.84500
H         11.23400        6.73600        1.50100
C         12.98200        7.48700        4.00900
H         13.56200        8.28100        3.56700
C         12.99100        7.27600        5.40000
H         13.58000        7.91700        6.04300
C          9.73600        6.25600        7.97000
O          9.26200        5.52000        8.83500
N          9.08000        6.54300        6.84100
H          9.54800        7.12400        6.15900
C          7.73400        6.03300        6.52800
H          7.62300        5.02700        6.93600
C          6.70000        6.94700        7.20900
H          6.83100        6.88300        8.29000
H          6.89600        7.98000        6.91900
C          5.25600        6.61500        6.88300
C          4.65000        5.48300        7.46300
H          5.21500        4.86200        8.14500
C          3.31700        5.15600        7.15000
H          2.85700        4.28700        7.59300
C          2.58700        5.96600        6.25200
O          1.30100        5.65800        5.94200
H          1.01300        4.85200        6.37200
C          3.19300        7.10000        5.67400
H          2.62400        7.71100        4.99000
C          4.52700        7.42400        5.98800
H          4.98900        8.29200        5.54000
C          7.45500        5.93700        5.01900
O          6.89400        4.95300        4.54100
N          7.87700        6.94700        4.25700
H          8.34600        7.71900        4.71700
C          7.67900        7.11100        2.81300
H          6.64500        6.85600        2.57500
C          7.88500        8.60100        2.48100
H          7.86000        8.73900        1.39900
H          7.05000        9.16300        2.90000
C          9.15900        9.20200        3.03500
N          9.43100        9.41500        4.39300
C         10.65500        9.96200        4.43800
H         11.17100       10.24100        5.34900
N         11.15400       10.10100        3.19800
H         12.07000       10.46000        2.97200
C         10.22700        9.62300        2.30000
H         10.32400        9.56300        1.22500
C          8.55900        6.16600        1.97000
O          9.46500        6.57600        1.25000
N          8.32400        4.86500        2.06300
H          7.62300        4.53700        2.71600
H          8.87400        4.22800        1.51200
