67
0 1
H          5.58400        5.06300        0.00400
C          6.17700        4.49800        0.72200
H          6.46500        3.53900        0.29500
H          5.59300        4.32200        1.62400
C          7.41000        5.29100        1.08300
O          7.47100        5.88700        2.15000
N          8.38900        5.30900        0.17800
H          8.24900        4.77900       -0.66500
C          9.72600        5.88500        0.39900
H         10.23800        5.27100        1.14200
C         10.52100        5.80500       -0.92100
H         11.57900        5.92300       -0.68200
H         10.40300        4.81400       -1.36100
C         10.13700        6.86000       -1.94900
C          8.90100        6.78300       -2.62500
H          8.26500        5.91900       -2.50600
C          8.47200        7.85000       -3.43700
H          7.51300        7.81500       -3.93200
C          9.29500        8.98300       -3.60600
O          8.83900       10.05400       -4.30100
H          7.92300       10.25200       -4.05300
C         10.55300        9.03800       -2.97300
H         11.17000        9.91400       -3.10300
C         10.96800        7.98300       -2.13800
H         11.91300        8.05500       -1.61700
C          9.70300        7.32900        0.94300
O         10.45700        7.65600        1.85600
N          8.81000        8.18100        0.42600
H          8.25000        7.85200       -0.34300
C          8.69700        9.59600        0.80600
H          9.71300        9.98800        0.88400
C          8.00100       10.37400       -0.32700
H          8.18200       11.44100       -0.18700
H          8.47100       10.08900       -1.26500
C          6.48000       10.14900       -0.41400
H          6.24400        9.10800       -0.19300
H          5.99800       10.77400        0.33700
C          5.88600       10.47500       -1.78500
O          6.48600       10.46400       -2.85400
O          4.56600       10.75600       -1.78700
H          4.36300       10.95200       -2.70500
C          8.04300        9.83700        2.18300
O          7.85000       10.99000        2.56100
N          7.69100        8.77900        2.92100
H          7.82700        7.85200        2.53400
C          7.11800        8.84900        4.27200
H          6.90900        9.89100        4.51400
C          5.77800        8.09200        4.30200
H          5.99400        7.02400        4.35900
H          5.24200        8.36400        5.21200
C          4.86700        8.34400        3.10900
C          4.39900        7.25700        2.34600
H          4.65500        6.24900        2.64100
C          3.61900        7.48000        1.19500
H          3.26700        6.65400        0.59800
C          3.30200        8.79700        0.80800
O          2.62300        9.01500       -0.34600
H          2.84500        9.87500       -0.71400
C          3.74100        9.88800        1.58800
H          3.49200       10.89600        1.29600
C          4.52200        9.65900        2.73800
H          4.88100       10.49600        3.32300
C          8.08300        8.34400        5.36300
O          7.74100        8.32000        6.53900
N          9.29600        7.92600        5.01400
H          9.91400        7.59900        5.73700
H          9.58200        7.94300        4.04500
