64
0 1
H          5.02400       13.86100       -6.68800
C          5.95800       13.30400       -6.74200
H          6.60200       13.58700       -5.91000
H          6.46100       13.51500       -7.68400
C          5.66200       11.82700       -6.65200
O          6.01100       11.18300       -5.67100
N          5.03100       11.27400       -7.68700
H          4.82300       11.85200       -8.48600
C          4.63900        9.85700       -7.74100
H          4.00400        9.64100       -6.88100
C          3.81500        9.61100       -9.01600
H          3.50900        8.56400       -9.03800
H          2.90400       10.20800       -8.96200
C          4.54200        9.93500      -10.31100
C          4.36000       11.18800      -10.92900
H          3.67500       11.91000      -10.50800
C          5.06400       11.50200      -12.10800
H          4.93400       12.45800      -12.59200
C          5.94800       10.56100      -12.67500
O          6.62400       10.87300      -13.81000
H          7.20500       10.16500      -14.09000
C          6.12200        9.30000      -12.06300
H          6.79300        8.57500      -12.49700
C          5.41400        8.98900      -10.88600
H          5.54700        8.02100      -10.41900
C          5.83200        8.88500       -7.66500
O          5.66600        7.74100       -7.25300
N          7.03900        9.33800       -8.01700
H          7.11200       10.29700       -8.33300
C          8.29900        8.59700       -7.88600
H          8.16200        7.58100       -8.25800
C          9.35000        9.31200       -8.74900
H         10.27200        8.73000       -8.74700
H          8.99200        9.37100       -9.77800
C          9.64700       10.70700       -8.25600
N          8.80500       11.81400       -8.40200
C          9.39300       12.80800       -7.72000
H          8.98800       13.80600       -7.61600
N         10.53100       12.38100       -7.14700
H         11.10200       12.92300       -6.51100
C         10.70500       11.05500       -7.46900
H         11.48600       10.39100       -7.12300
C          8.80700        8.47900       -6.43600
O          9.78900        7.78100       -6.19800
N          8.18000        9.17200       -5.48000
H          7.40800        9.76700       -5.75800
C          8.59900        9.24100       -4.07100
H          9.16200        8.33600       -3.84100
C          9.55100       10.43600       -3.87400
H          9.93600       10.41000       -2.85500
H         10.39800       10.32900       -4.55200
C          8.88300       11.79700       -4.12700
H          8.50800       11.80900       -5.14900
H          8.03000       11.91000       -3.45700
S          9.97100       13.23700       -3.92500
C         10.17300       13.23600       -2.12200
H          9.19400       13.28100       -1.64400
H         10.68800       12.33000       -1.80600
H         10.76000       14.10400       -1.82200
C          7.41500        9.25900       -3.08300
O          7.57300        9.60000       -1.91700
N          6.21100        8.90300       -3.51500
H          6.08100        8.63500       -4.47700
H          5.44300        8.93400       -2.86700
