68
0 1
H          9.68900        8.59100        3.78700
C          9.46500        8.70800        4.84600
H         10.16500        8.11500        5.43300
H          8.44800        8.37700        5.05000
C          9.60800       10.16100        5.23200
O         10.41500       10.49500        6.09100
N          8.81600       11.02900        4.60300
H          8.16500       10.67200        3.92300
C          8.80400       12.47400        4.86700
H          9.83800       12.80500        4.98000
C          8.22200       13.20600        3.64200
H          8.63100       12.74900        2.73900
H          7.14100       13.06100        3.60700
C          8.53600       14.69200        3.58700
C          9.68900       15.13700        2.90800
H         10.34800       14.42000        2.43800
C          9.97900       16.51300        2.82700
H         10.85800       16.85000        2.30100
C          9.12200       17.45000        3.44500
O          9.40400       18.77700        3.38900
H         10.11100       18.97500        2.77500
C          7.97300       17.00600        4.13000
H          7.32300       17.73100        4.59900
C          7.67500       15.63100        4.18800
H          6.77700       15.30000        4.69100
C          8.07800       12.79700        6.19000
O          6.97200       13.33500        6.20900
N          8.68700       12.42900        7.32100
H          9.57100       11.93800        7.23800
C          8.11400       12.60200        8.66500
H          7.13500       12.12100        8.68200
C          9.01000       11.88900        9.69000
H          8.50000       11.89100       10.65400
H          9.12600       10.84600        9.39300
C         10.38500       12.51100        9.87100
C         11.47900       12.04500        9.11600
H         11.35000       11.22900        8.41700
C         12.74600       12.64300        9.26300
H         13.57800       12.29000        8.67500
C         12.91900       13.71000       10.17100
O         14.13400       14.30100       10.31000
H         14.77900       13.93100        9.70800
C         11.82700       14.16600       10.93800
H         11.97200       14.97900       11.63300
C         10.56200       13.56700       10.78700
H          9.72300       13.92500       11.37100
C          7.89000       14.07500        9.05900
O          7.14000       14.35600        9.98900
N          8.51500       15.01600        8.34500
H          9.16600       14.70500        7.64100
C          8.35500       16.46500        8.51900
H          8.38000       16.67900        9.58800
C          9.53200       17.20600        7.85400
H          9.39300       17.21400        6.77300
H          9.51600       18.24000        8.20000
C         10.91300       16.61100        8.18100
H         11.65700       17.40300        8.09700
H         10.91200       16.27300        9.21700
S         11.44100       15.23600        7.11100
C         11.94100       16.16000        5.63700
H         11.11400       16.77700        5.29200
H         12.79100       16.79900        5.87800
H         12.22500       15.46100        4.84900
C          7.01500       17.01000        7.98400
O          6.74600       18.20100        8.08900
N          6.16300       16.18900        7.38000
H          6.38800       15.21000        7.27900
H          5.28800       16.56300        7.05700
