64
0 1
H          9.79900       12.91800        7.40800
C         10.51500       12.87400        6.58900
H         11.49100       12.58300        6.97300
H         10.57900       13.84800        6.10700
C         10.04600       11.84800        5.58400
O          9.00700       11.23100        5.77500
N         10.81700       11.66600        4.51500
H         11.66700       12.20200        4.43400
C         10.52200       10.71900        3.43500
H          9.99000        9.86200        3.85100
C          9.61400       11.40700        2.40400
H          8.74700       11.82300        2.92000
H         10.15500       12.23800        1.94900
C          9.10500       10.48100        1.32100
C          9.56500       10.60300       -0.00500
H         10.25900       11.38800       -0.27100
C          9.10300        9.71300       -0.99200
H          9.44800        9.79200       -2.01200
C          8.17400        8.70700       -0.65300
O          7.78500        7.80600       -1.59000
H          7.00100        7.32500       -1.31900
C          7.69800        8.59800        0.67000
H          7.00500        7.81600        0.93700
C          8.16600        9.48700        1.65400
H          7.81200        9.39700        2.67300
C         11.82600       10.21500        2.80000
O         12.74700       11.00500        2.58900
N         11.93100        8.91600        2.49300
H         11.11200        8.32000        2.58400
C         13.20800        8.27300        2.12400
H         13.93400        8.54100        2.89300
C         13.06200        6.73600        2.15600
H         14.06200        6.31200        2.26100
H         12.49700        6.44600        3.04400
C         12.42200        6.08800        0.91200
H         13.05300        6.27800        0.04500
H         12.39100        5.00800        1.05600
C         11.00300        6.56300        0.62100
O         10.21800        6.82800        1.51700
N         10.63100        6.71200       -0.62900
H         11.28000        6.56500       -1.39600
H          9.69600        7.04500       -0.80300
C         13.80200        8.75700        0.78900
O         14.99300        8.57900        0.54600
N         12.98300        9.37500       -0.06800
H         12.01100        9.44600        0.19600
C         13.39000        9.98500       -1.34100
H         14.47700        9.95900       -1.41200
C         12.83000        9.15700       -2.51400
H         11.74100        9.17600       -2.47500
H         13.13700        9.62100       -3.45300
C         13.28800        7.71600       -2.55300
N         12.49900        6.63000       -2.94100
C         13.29800        5.55400       -2.90800
H         12.98800        4.55100       -3.17100
N         14.53300        5.90200       -2.51000
H         15.32000        5.27500       -2.41500
C         14.54900        7.26100       -2.29200
H         15.39300        7.86100       -1.97800
C         13.02800       11.48000       -1.40900
O         12.81700       12.03600       -2.47800
N         12.91700       12.15900       -0.27300
H         12.69300       13.13900       -0.32400
H         13.09200       11.70600        0.61500
