63
0 1
H          9.00300        8.54300       -2.78000
C          8.90900        7.46500       -2.89900
H          9.82800        7.05400       -3.31200
H          8.07800        7.24400       -3.56900
C          8.63600        6.83700       -1.55500
O          7.59700        6.22000       -1.35800
N          9.55100        7.03100       -0.60600
H         10.34000        7.61900       -0.82500
C          9.45000        6.51700        0.77200
H          9.31000        5.43600        0.72700
C         10.77400        6.79600        1.50400
H         10.67800        6.48900        2.54700
H         11.55100        6.17300        1.05900
C         11.21700        8.24700        1.45000
C         10.66600        9.18700        2.34100
H          9.96200        8.86800        3.10000
C         11.01700       10.54600        2.23400
H         10.58800       11.27900        2.90200
C         11.92000       10.96500        1.23600
O         12.20600       12.28500        1.09900
H         13.02400       12.43000        0.62000
C         12.49400       10.02000        0.35900
H         13.18700       10.34000       -0.40400
C         12.14300        8.66200        0.47000
H         12.58000        7.93700       -0.20400
C          8.24700        7.07700        1.56100
O          7.90800        6.55800        2.61900
N          7.57200        8.10400        1.03900
H          7.94800        8.53000        0.20100
C          6.27400        8.58400        1.52000
H          6.35200        8.80300        2.58600
C          5.89900        9.87800        0.77000
H          5.88200        9.69500       -0.30600
H          4.88600       10.15000        1.07100
C          6.80100       11.08800        1.08100
H          6.25800       11.99300        0.80900
H          6.99200       11.13400        2.15300
C          8.13700       11.12600        0.33700
O          8.54700       10.28900       -0.46100
O          8.88700       12.20700        0.62800
H          9.73100       12.09800        0.18500
C          5.14300        7.54600        1.35500
O          4.12500        7.65400        2.03400
N          5.30000        6.54500        0.48000
H          6.16300        6.50400       -0.05200
C          4.32900        5.46600        0.24100
H          3.33400        5.91000        0.27500
C          4.54200        4.91700       -1.18300
H          4.67300        5.75700       -1.86800
H          5.45200        4.31700       -1.20500
C          3.35600        4.08600       -1.69200
H          3.21800        3.21100       -1.05700
H          2.45600        4.69600       -1.62000
S          3.50800        3.52300       -3.41000
C          4.84100        2.30600       -3.23500
H          4.56400        1.56500       -2.48600
H          5.00500        1.80900       -4.19100
H          5.76000        2.80500       -2.93000
C          4.36300        4.38000        1.34300
O          4.45000        3.18600        1.08000
N          4.33800        4.77300        2.60800
H          4.26900        5.75900        2.81900
H          4.39600        4.07600        3.33100
