64
0 1
H          4.98000       12.68500       -5.58500
C          4.06500       12.43400       -5.05200
H          3.97000       11.35300       -4.96300
H          3.20800       12.83200       -5.59500
C          4.10600       13.05000       -3.67400
O          3.25500       13.86900       -3.34100
N          5.09700       12.65900       -2.87400
H          5.77900       12.01400       -3.23700
C          5.32800       13.22900       -1.54300
H          4.41100       13.12900       -0.96100
C          6.43600       12.44500       -0.82600
H          6.12900       11.40200       -0.73700
H          7.34000       12.46800       -1.43800
C          6.77500       12.97800        0.55500
C          6.11800       12.46500        1.69100
H          5.38200       11.68000        1.58500
C          6.42500       12.96700        2.97000
H          5.93200       12.57900        3.84900
C          7.38400       13.99100        3.11700
O          7.65300       14.49200        4.35000
H          8.04000       15.37900        4.29400
C          8.03600       14.51100        1.97900
H          8.77200       15.29400        2.09400
C          7.73600       13.99900        0.70200
H          8.24300       14.39400       -0.17000
C          5.68000       14.72300       -1.63200
O          6.58000       15.11000       -2.37500
N          4.99300       15.55700       -0.84800
H          4.28600       15.17200       -0.24000
C          5.16200       17.01200       -0.82500
H          6.09100       17.28600       -1.32800
C          3.99600       17.68500       -1.57200
H          3.06000       17.31800       -1.14600
H          4.03500       18.76400       -1.41000
C          3.99600       17.42100       -3.08900
H          4.62600       18.15900       -3.58600
H          4.40300       16.43700       -3.31000
C          2.58900       17.48800       -3.66700
O          2.04000       18.54700       -3.91000
N          1.94400       16.36600       -3.89700
H          2.37600       15.46900       -3.68800
H          1.01700       16.45200       -4.26700
C          5.24000       17.49500        0.62700
O          4.31300       17.26900        1.40200
N          6.34600       18.15800        0.98400
H          7.03300       18.31300        0.26300
C          6.71200       18.62700        2.33500
H          7.72400       19.02500        2.25600
C          5.82300       19.80100        2.79100
H          4.80300       19.44800        2.94500
H          6.19400       20.17100        3.74700
C          5.78500       20.96500        1.78900
H          5.29500       20.62100        0.87800
H          5.16500       21.75800        2.20800
S          7.39200       21.67700        1.32900
C          7.90100       22.42300        2.90100
H          7.14100       23.13000        3.23600
H          8.03700       21.64800        3.65500
H          8.84400       22.95200        2.76100
C          6.81100       17.52100        3.40400
O          7.89800       17.23300        3.89800
N          5.72200       16.85900        3.76500
H          4.85400       17.03700        3.27700
H          5.80600       16.10700        4.43100
