61
0 1
H         14.42600        6.64000      -11.24400
C         14.72700        6.05800      -12.11300
H         14.45500        6.58800      -13.02300
H         14.23900        5.08400      -12.08100
C         16.22200        5.85700      -12.07200
O         16.87300        6.27300      -11.12000
N         16.76700        5.21400      -13.10700
H         16.15600        4.89800      -13.84100
C         18.18800        4.85600      -13.19700
H         18.35300        4.06800      -12.47300
C         18.49200        4.25500      -14.57400
H         18.30400        5.00700      -15.34200
H         19.55000        3.99600      -14.61900
C         17.68100        3.00700      -14.87400
C         17.99000        1.80000      -14.21500
H         18.81600        1.75600      -13.51900
C         17.22100        0.64700      -14.46100
H         17.44900       -0.28500      -13.96600
C         16.14200        0.69800      -15.36700
O         15.40500       -0.41900      -15.59800
H         14.70700       -0.26700      -16.23600
C         15.83300        1.90700      -16.02900
H         15.01000        1.94700      -16.72600
C         16.60400        3.05900      -15.78100
H         16.37000        3.98400      -16.29100
C         19.11700        6.05200      -12.88700
O         18.93000        7.11900      -13.47300
N         20.11800        5.90600      -11.99100
C         20.90800        7.04000      -11.53100
H         20.26600        7.85200      -11.18500
H         21.54600        7.39000      -12.34400
C         21.76700        6.51300      -10.38500
H         21.20000        6.54400       -9.45400
H         22.70000        7.06900      -10.29000
C         22.00400        5.06400      -10.80300
H         22.26500        4.43600       -9.94900
H         22.79800        5.02800      -11.55100
C         20.67400        4.65600      -11.45100
H         20.89300        3.97900      -12.27700
C         19.79900        3.87900      -10.44900
O         20.07100        2.70200      -10.22900
N         18.72700        4.46000       -9.89800
H         18.48000        5.40500      -10.17700
C         17.73000        3.72900       -9.09900
H         18.26400        3.01700       -8.46800
C         16.99700        4.70600       -8.15800
H         17.73500        5.26900       -7.58500
H         16.41300        5.41300       -8.74600
C         16.05500        4.00400       -7.17200
H         15.53900        4.77100       -6.59500
H         15.30000        3.44700       -7.72700
S         16.87300        2.87900       -6.00800
C         15.42300        2.27400       -5.10700
H         14.74200        1.77900       -5.79900
H         15.74100        1.56300       -4.34400
H         14.91300        3.11100       -4.62900
C         16.78700        2.90800      -10.00400
O         15.63100        3.24500      -10.23400
N         17.29200        1.83000      -10.58900
H         18.26200        1.59400      -10.43000
H         16.70200        1.29300      -11.20100
