71
0 1
H         10.02500        4.38500       -2.20600
C         10.73600        3.79700       -1.62800
H         11.74600        3.96900       -1.99500
H         10.49100        2.74000       -1.71900
C         10.65500        4.19800       -0.17400
O         10.34500        3.37300        0.67800
N         10.92700        5.47000        0.11300
H         11.16000        6.08900       -0.64600
C         10.88600        6.03800        1.46800
H         11.32600        5.30600        2.14600
C         11.77300        7.29300        1.51900
H         12.76900        7.03000        1.15800
H         11.36500        8.03900        0.83700
C         11.93200        7.90700        2.90100
C         11.50500        9.22900        3.13900
H         11.03900        9.79800        2.34700
C         11.68600        9.81400        4.40700
H         11.37100       10.82900        4.59600
C         12.28300        9.07300        5.44600
O         12.45100        9.63600        6.67000
H         12.44800        8.95300        7.36200
C         12.69200        7.74300        5.21700
H         13.14800        7.18100        6.02000
C         12.52600        7.16500        3.94300
H         12.87000        6.15600        3.76500
C          9.44200        6.27600        1.95800
O          8.99200        7.40600        2.13500
N          8.70700        5.18400        2.18000
H          9.13300        4.28900        1.96300
C          7.31300        5.16900        2.65500
H          6.68300        5.69300        1.93600
C          6.86300        3.70200        2.73600
H          5.82300        3.67300        3.06700
H          6.89400        3.27100        1.73400
C          7.67700        2.83800        3.65800
C          8.69100        2.02800        3.27700
H          9.01800        1.88200        2.25300
N          9.26200        1.44300        4.39000
H         10.03800        0.79800        4.34100
C          8.64900        1.85400        5.55300
C          8.87800        1.56800        6.90700
H          9.67500        0.90100        7.19700
C          8.05300        2.15900        7.87900
H          8.21200        1.95000        8.92800
C          7.01100        3.01700        7.48400
H          6.37100        3.46400        8.23300
C          6.78900        3.29500        6.12100
H          5.98200        3.95400        5.83400
C          7.60900        2.73000        5.11800
C          7.11100        5.85900        4.01500
O          5.99900        6.26500        4.33700
N          8.17600        5.99900        4.81100
H          9.04600        5.60900        4.49000
C          8.16300        6.67100        6.11200
H          7.28700        6.32800        6.66400
C          9.42200        6.20700        6.87300
H          9.39700        5.11600        6.91100
H         10.31300        6.49100        6.31100
C          9.54500        6.71100        8.32200
H          8.56400        6.97200        8.72000
H          9.94200        5.90200        8.93500
C         10.50500        7.89000        8.45400
O         11.71800        7.74200        8.47300
N         10.01700        9.10700        8.50100
H         10.67000        9.86900        8.50900
H          9.03100        9.24800        8.30100
C          8.04500        8.20700        5.99600
O          7.70400        8.87900        6.96500
N          8.31100        8.79900        4.83600
H          8.56900        8.25100        4.02700
H          8.21200        9.79700        4.77300
