70
0 1
H         13.46800       12.46800        6.35500
C         12.61400       11.92500        6.75500
H         11.82700       12.62900        7.02000
H         12.91100       11.36200        7.63800
C         12.08700       10.97400        5.70700
O         10.93600       11.07900        5.30100
N         12.92900       10.03900        5.26900
H         13.85600       10.00600        5.66000
C         12.56600        9.02000        4.27700
H         12.01100        9.51700        3.48100
C         13.84400        8.43600        3.64500
H         14.38600        9.24600        3.15500
H         14.47500        8.05800        4.45100
C         13.65900        7.31700        2.62500
C         12.49000        7.21300        1.83900
H         11.69300        7.93700        1.92200
C         12.31600        6.12100        0.96700
H         11.39500        6.01100        0.41300
C         13.32000        5.13800        0.85600
O         13.09500        4.01400        0.13200
H         12.23400        3.63800        0.36300
C         14.51000        5.26500        1.60000
H         15.27000        4.50300        1.51200
C         14.67600        6.35000        2.48200
H         15.57900        6.42700        3.07200
C         11.63200        7.95000        4.87700
O         12.05500        6.86500        5.28000
N         10.33400        8.26100        4.92900
H         10.06800        9.20500        4.67600
C          9.28100        7.27300        5.17400
H          9.48500        6.77900        6.12400
C          7.90200        7.95600        5.24700
H          7.69700        8.41700        4.27900
H          7.14600        7.18700        5.41300
C          7.75700        9.03300        6.33900
H          8.47600        9.83200        6.16400
C          6.35100        9.63200        6.27700
H          6.25400       10.42100        7.02400
H          6.18100       10.06600        5.29200
H          5.60300        8.86200        6.46700
C          7.97200        8.47100        7.74600
H          7.29200        7.63900        7.92700
H          9.00200        8.13700        7.86000
H          7.78800        9.25200        8.48400
C          9.31000        6.20600        4.06900
O          9.42900        6.53600        2.89100
N          9.20500        4.93200        4.45900
H          9.06300        4.75100        5.43800
C          9.39500        3.77000        3.57200
H          9.34800        2.89000        4.21200
C          8.22800        3.63800        2.57300
H          8.35000        4.38000        1.78300
H          8.28100        2.65700        2.10000
C          6.85100        3.80400        3.19400
C          6.23700        2.72200        3.85500
H          6.73700        1.76400        3.89600
C          4.97500        2.88600        4.45900
H          4.50600        2.05600        4.96300
C          4.32500        4.13900        4.40200
O          3.11000        4.30800        4.98400
H          2.75400        3.48600        5.31900
C          4.94000        5.22200        3.74000
H          4.43300        6.17400        3.69900
C          6.19900        5.05200        3.13400
H          6.67200        5.88200        2.62400
C         10.79000        3.71100        2.90700
O         10.97000        3.12200        1.84400
N         11.80700        4.31300        3.51500
H         11.65400        4.88000        4.33700
H         12.70000        4.33400        3.05000
