68
0 1
H         10.02900        1.47000       -0.00100
C         10.60100        2.39600        0.06000
H         11.58700        2.24100       -0.37200
H         10.69200        2.69500        1.10300
C          9.87500        3.47200       -0.71100
O          8.81700        3.21200       -1.26900
N         10.45600        4.67300       -0.73900
H         11.33300        4.75500       -0.25100
C          9.93200        5.90500       -1.35900
H         10.63500        6.69600       -1.10200
C          9.96700        5.79700       -2.89700
H         11.00900        5.76100       -3.21800
H          9.50800        4.85200       -3.18900
C          9.26900        6.90800       -3.67000
C          9.34700        8.25400       -3.25200
H          9.91900        8.52700       -2.37700
C          8.65700        9.25600       -3.96100
H          8.69200       10.28300       -3.63000
C          7.91200        8.92200       -5.11100
O          7.20400        9.87700       -5.76600
H          6.86400       10.53200       -5.13900
C          7.85700        7.58400       -5.54800
H          7.28200        7.33900       -6.42800
C          8.53000        6.58000       -4.82500
H          8.47300        5.55300       -5.16000
C          8.57700        6.39300       -0.80600
O          8.54200        7.45800       -0.19500
N          7.49600        5.62700       -0.98600
H          7.67500        4.73100       -1.42900
C          6.10100        5.88000       -0.57100
H          5.51800        5.02500       -0.91800
C          5.97100        5.90000        0.96300
H          6.42500        6.81200        1.34900
H          4.91000        5.91700        1.21900
C          6.61800        4.69000        1.65100
H          6.25300        3.78300        1.16900
H          7.69800        4.73500        1.51200
S          6.27800        4.55100        3.42900
C          7.00300        6.09600        4.04500
H          6.95700        6.10700        5.13400
H          8.04200        6.16900        3.72500
H          6.44100        6.94700        3.66000
C          5.41300        7.11700       -1.17900
O          4.28600        7.01100       -1.65600
N          6.05600        8.28500       -1.16100
H          6.98300        8.28700       -0.74900
C          5.47700        9.59100       -1.50400
H          4.45100        9.60100       -1.13300
C          6.24600       10.68900       -0.74900
H          7.24800       10.77100       -1.17300
H          5.74300       11.64400       -0.90800
C          6.35600       10.44600        0.74700
C          5.21200       10.55000        1.56400
H          4.26100       10.82800        1.13100
C          5.30300       10.28100        2.94400
H          4.43200       10.35400        3.57700
C          6.54000        9.91400        3.51200
O          6.62300        9.65500        4.84300
H          7.53100        9.60300        5.14100
C          7.68700        9.81100        2.69600
H          8.63300        9.51900        3.12200
C          7.59100       10.07700        1.31600
H          8.46600        9.97900        0.68900
C          5.38400        9.84700       -3.02300
O          5.85200       10.85800       -3.54300
N          4.82000        8.91400       -3.77800
H          4.79200        9.04300       -4.77500
H          4.45000        8.08200       -3.33600
