63
0 1
H         13.38700        4.35700       -4.93100
C         13.55800        4.06500       -3.89600
H         14.15800        4.82800       -3.40200
H         14.07300        3.10700       -3.86300
C         12.22800        3.94900       -3.19200
O         11.18200        4.17000       -3.79500
N         12.25100        3.59400       -1.90800
H         13.14400        3.45700       -1.46300
C         11.03800        3.46700       -1.09400
H         10.26100        3.04400       -1.73100
C         11.26300        2.46700        0.05200
H         11.62000        1.52500       -0.36500
H         12.03700        2.85400        0.71700
C         10.00000        2.18300        0.84600
C          8.86600        1.66400        0.19000
H          8.90800        1.41500       -0.86100
C          7.66000        1.49300        0.89300
H          6.77600        1.13400        0.38800
C          7.59300        1.81100        2.26500
O          6.40500        1.74200        2.91600
H          5.69900        2.08500        2.34900
C          8.73900        2.29100        2.93300
H          8.67000        2.54300        3.98100
C          9.93800        2.48700        2.22100
H         10.80200        2.89600        2.72600
C         10.51700        4.84000       -0.62800
O         10.64400        5.23000        0.53300
N          9.92600        5.59700       -1.55700
H          9.92100        5.22700       -2.50200
C          9.47300        6.98400       -1.35700
H         10.25800        7.49100       -0.79400
C          9.35100        7.71200       -2.71300
H          8.50300        7.30300       -3.26500
H          9.14600        8.76600       -2.52000
C         10.60400        7.63100       -3.60700
H         10.66700        6.64400       -4.05800
H         10.50200        8.35800       -4.41200
C         11.90700        7.91400       -2.86200
O         12.82300        7.11800       -2.71500
O         11.99000        9.12700       -2.28300
H         12.84600        9.14800       -1.85300
C          8.20700        7.14400       -0.47900
O          7.44000        8.08600       -0.65900
N          7.97700        6.24100        0.47900
H          8.64300        5.48400        0.56500
C          7.07600        6.46900        1.62300
H          6.33700        7.23200        1.37300
C          6.33100        5.17200        1.97400
H          7.06800        4.43100        2.27200
H          5.69200        5.36300        2.83700
C          5.46100        4.57600        0.89000
N          4.87200        3.30900        0.95300
C          4.13100        3.19000       -0.15800
H          3.53400        2.32100       -0.40600
N          4.22100        4.30200       -0.90600
H          3.73500        4.46500       -1.77700
C          5.04800        5.19200       -0.25800
H          5.30400        6.19500       -0.57500
C          7.83100        6.99000        2.85800
O          7.22300        7.53000        3.77200
N          9.15200        6.85300        2.91900
H          9.62700        7.20100        3.73400
H          9.65400        6.39200        2.17300
