71
0 1
H         13.57300        1.40600       -0.88800
C         13.05100        0.83800       -0.12000
H         13.74800        0.56200        0.66900
H         12.61500       -0.05900       -0.55500
C         11.95500        1.69300        0.47100
O         11.98100        1.99400        1.65900
N         10.98700        2.07800       -0.35900
H         11.02100        1.77900       -1.32200
C          9.84600        2.90100        0.04500
H          9.65200        2.73000        1.10300
C         10.19100        4.38600       -0.12900
H         11.00500        4.64000        0.55200
H         10.55300        4.54500       -1.14600
C          9.02900        5.32600        0.13000
C          8.62200        5.60200        1.45000
H          9.13900        5.14800        2.28400
C          7.54100        6.47300        1.68500
H          7.22000        6.69100        2.69400
C          6.86400        7.06900        0.60100
O          5.82400        7.91300        0.82900
H          5.56300        8.37900        0.03400
C          7.25900        6.77700       -0.72300
H          6.73300        7.21600       -1.55600
C          8.33900        5.90400       -0.95400
H          8.63800        5.67300       -1.96900
C          8.56900        2.52500       -0.71600
O          8.59300        2.30900       -1.92600
N          7.46100        2.45500        0.02100
H          7.57400        2.62300        1.01200
C          6.09900        2.17400       -0.46200
H          5.93600        2.67400       -1.41800
C          5.92600        0.65600       -0.65200
H          4.91400        0.46400       -1.01300
H          6.61300        0.32200       -1.43100
C          6.16600       -0.17700        0.57500
C          5.21500       -0.56800        1.45400
H          4.15800       -0.35100        1.35500
N          5.80400       -1.23000        2.51300
H          5.28900       -1.59400        3.30100
C          7.17300       -1.29900        2.37100
C          8.19200       -1.83600        3.17200
H          7.95500       -2.30200        4.11600
C          9.52300       -1.75200        2.73100
H         10.32200       -2.15500        3.33700
C          9.81400       -1.15000        1.49400
H         10.84000       -1.09800        1.15600
C          8.78200       -0.61700        0.69700
H          9.01400       -0.17200       -0.25800
C          7.43500       -0.66000        1.12200
C          5.05400        2.70300        0.53700
O          3.99000        3.18200        0.15300
N          5.40200        2.66400        1.82400
H          6.26000        2.16500        2.03300
C          4.75000        3.24700        3.00100
H          3.70300        2.94700        3.01000
C          5.45200        2.63900        4.23100
H          5.07300        3.10400        5.14300
H          5.20000        1.57900        4.28000
C          6.96500        2.74600        4.19700
N          7.80500        1.99000        3.37200
C          9.05900        2.34300        3.69000
H          9.95100        1.90900        3.25300
N          9.04600        3.30600        4.62700
H          9.86700        3.73100        5.03400
C          7.73400        3.57500        4.95800
H          7.36800        4.29300        5.68000
C          4.76700        4.79000        3.01800
O          5.15000        5.42000        3.99900
N          4.37100        5.43000        1.92900
H          4.06800        4.89900        1.12400
H          4.46300        6.43400        1.89900
