63
0 1
H         20.10800        3.07200        8.34100
C         19.35200        3.85000        8.44600
H         19.61100        4.69500        7.81200
H         19.29400        4.16500        9.48600
C         18.01600        3.29400        8.01300
O         17.92500        2.13800        7.62000
N         16.97100        4.11500        8.09100
H         17.12700        5.06300        8.39000
C         15.64500        3.75000        7.58500
H         15.44700        2.72000        7.88500
C         14.56900        4.63500        8.23200
H         14.55800        4.45700        9.30800
H         14.82600        5.68300        8.06700
C         13.18400        4.36700        7.67600
C         12.57900        3.11000        7.88300
H         13.05400        2.37500        8.51900
C         11.36500        2.79900        7.24200
H         10.89800        1.83400        7.37400
C         10.74500        3.75200        6.40900
O          9.61200        3.43700        5.73500
H          9.52300        3.99500        4.94800
C         11.32800        5.02400        6.24100
H         10.82300        5.75800        5.63400
C         12.55100        5.33000        6.86600
H         13.00300        6.30300        6.71700
C         15.57900        3.79500        6.04500
O         16.21700        4.63400        5.41200
N         14.74600        2.93100        5.45000
H         14.20600        2.32800        6.05200
C         14.63800        2.69400        4.00200
H         15.58000        2.26400        3.65900
C         13.51800        1.65500        3.78900
H         13.71000        0.79500        4.43300
H         12.56900        2.10100        4.09200
C         13.38200        1.15300        2.33800
H         13.30200        1.99200        1.65000
H         14.26700        0.57300        2.07800
C         12.14500        0.28200        2.13600
O         11.25300        0.51000        1.32800
O         12.03600       -0.77600        2.96200
H         11.22000       -1.21500        2.71500
C         14.38100        3.95700        3.15400
O         14.79300        4.00300        1.99800
N         13.70600        4.97300        3.70400
H         13.37300        4.86100        4.65000
C         13.38900        6.23200        3.00300
H         13.77900        6.16900        1.98600
C         11.86300        6.41300        2.87900
H         11.47400        6.79200        3.82200
H         11.66300        7.17200        2.12200
C         11.10100        5.16100        2.50500
N          9.94900        4.69200        3.14500
C          9.62600        3.54500        2.52600
H          8.78900        2.91300        2.79500
N         10.51300        3.26600        1.55800
H         10.53600        2.40200        1.02000
C         11.44400        4.27900        1.52000
H         12.30500        4.35300        0.86800
C         14.09300        7.45600        3.61600
O         13.67000        8.58800        3.42200
N         15.15300        7.26500        4.39100
H         15.61400        8.07200        4.77500
H         15.51700        6.33200        4.54100
