68
0 1
H         12.27000       11.00800        2.85900
C         12.70800       11.37100        1.93100
H         13.79400       11.38400        2.01300
H         12.34900       12.37900        1.72700
C         12.30500       10.46600        0.79200
O         11.69300       10.91600       -0.16900
N         12.60800        9.17400        0.91700
H         13.07000        8.87000        1.75800
C         12.32500        8.15800       -0.11300
H         12.80900        8.47300       -1.03800
C         12.95200        6.82000        0.30900
H         12.74100        6.07600       -0.46100
H         14.03500        6.94200        0.34000
C         12.48200        6.28000        1.65000
C         11.27300        5.56200        1.73600
H         10.67900        5.38900        0.84800
C         10.83600        5.06200        2.97800
H          9.91200        4.50900        3.05100
C         11.60800        5.27900        4.13800
O         11.18000        4.80200        5.33900
H         11.91500        4.66200        5.94000
C         12.82200        5.99400        4.05200
H         13.41200        6.16400        4.94000
C         13.25700        6.49000        2.80800
H         14.19600        7.02300        2.74300
C         10.82800        7.99800       -0.44800
O         10.49100        7.43800       -1.48700
N          9.93200        8.54300        0.38100
H         10.27600        8.94100        1.24000
C          8.49100        8.65900        0.12300
H          8.07900        7.65600        0.00800
C          7.82600        9.33100        1.33800
H          7.97500       10.41000        1.26600
H          6.75100        9.14900        1.29600
C          8.35800        8.85900        2.67900
C          9.21600        9.69000        3.42800
H          9.43900       10.69100        3.08500
C          9.78800        9.21500        4.62400
H         10.45100        9.83700        5.20700
C          9.50300        7.90800        5.06900
O         10.10200        7.42700        6.18800
H         10.11800        6.46500        6.17000
C          8.62700        7.08500        4.33000
H          8.40700        6.08600        4.67600
C          8.05700        7.56100        3.13400
H          7.40200        6.92400        2.55500
C          8.15400        9.45000       -1.15600
O          7.06800        9.28800       -1.70200
N          9.08000       10.28600       -1.64300
H          9.94200       10.39800       -1.12100
C          8.96900       11.00500       -2.91900
H          7.97700       11.45700       -2.97200
C         10.01600       12.13300       -2.90400
H          9.89200       12.70700       -1.98400
H         11.01400       11.69200       -2.89700
C          9.90800       13.10900       -4.08300
H         10.18300       12.59900       -5.00500
H          8.86900       13.42800       -4.16900
S         10.93500       14.59800       -3.92500
C         12.59200       13.87800       -4.07700
H         12.78000       13.20300       -3.24200
H         12.66700       13.32900       -5.01600
H         13.33400       14.67600       -4.06600
C          9.11100       10.09000       -4.15700
O          8.83200       10.50400       -5.27600
N          9.54300        8.84300       -4.00800
H          9.75600        8.47800       -3.09000
H          9.60300        8.26100       -4.82600
