61
0 1
H         15.24800        2.65900        2.77300
C         14.19400        2.77000        2.52000
H         13.58500        2.59800        3.40600
H         13.92800        2.05900        1.74100
C         13.95700        4.17500        2.01700
O         14.88300        4.97300        1.95800
N         12.71200        4.47400        1.65600
H         11.99500        3.77000        1.75000
C         12.28000        5.77700        1.13900
H         12.89000        6.55000        1.60800
C         12.52300        5.82800       -0.38300
H         12.40500        6.85300       -0.73100
H         13.55900        5.55300       -0.58600
C         11.60900        4.93900       -1.20600
C         10.41800        5.46100       -1.75100
H         10.15800        6.50000       -1.60100
C          9.55800        4.62800       -2.49100
H          8.64500        5.02200       -2.91000
C          9.88200        3.26700       -2.68000
O          9.02900        2.44800       -3.34500
H          8.12100        2.78800       -3.30300
C         11.08400        2.75100       -2.15300
H         11.32400        1.71100       -2.31200
C         11.94700        3.58800       -1.42000
H         12.86700        3.19100       -1.01400
C         10.80000        6.03300        1.49800
O         10.06700        5.07500        1.76400
N         10.32700        7.29600        1.52600
C         11.10100        8.52100        1.35900
H         11.68500        8.51500        0.44000
H         11.75800        8.65200        2.22000
C         10.08400        9.66100        1.31200
H          9.75900        9.82200        0.28300
H         10.48900       10.58100        1.73400
C          8.92500        9.11600        2.14400
H          7.97900        9.60000        1.89600
H          9.14700        9.25400        3.20400
C          8.92800        7.61600        1.81700
H          8.59800        7.06700        2.70000
C          8.00600        7.24000        0.64200
O          7.68900        8.06600       -0.21300
N          7.57300        5.97700        0.59400
H          7.97200        5.32600        1.26000
C          6.62900        5.44800       -0.40200
H          6.91900        5.82900       -1.38200
C          6.74600        3.91700       -0.45700
H          7.79600        3.63800       -0.54700
H          6.36700        3.48600        0.47000
C          6.00100        3.32200       -1.62700
N          6.39500        3.41200       -2.96500
C          5.43100        2.80300       -3.67300
H          5.43200        2.70400       -4.75100
N          4.46600        2.34600       -2.85700
H          3.62400        1.87100       -3.15100
C          4.80700        2.66900       -1.56300
H          4.23100        2.49100       -0.66400
C          5.18500        5.93000       -0.15500
O          4.30900        5.18300        0.26600
N          4.92200        7.21100       -0.36800
H          5.67400        7.82900       -0.64100
H          3.98900        7.54700       -0.19700
