64
0 1
H          4.08900        9.71900       -1.59900
C          3.86600        8.65700       -1.67600
H          3.29600        8.47100       -2.58600
H          3.28300        8.33800       -0.81300
C          5.15700        7.87600       -1.72900
O          5.41100        7.17500       -2.70500
N          5.96400        7.98200       -0.67400
H          5.66800        8.56900        0.08900
C          7.25300        7.28900       -0.53300
H          7.78600        7.37200       -1.48200
C          8.09700        8.01500        0.52900
H          8.10500        9.08100        0.29800
H          7.62300        7.89900        1.50500
C          9.54100        7.55300        0.60900
C         10.45200        7.92700       -0.39900
H         10.12300        8.53500       -1.23000
C         11.79700        7.51800       -0.32300
H         12.50400        7.79600       -1.09000
C         12.24100        6.74000        0.76600
O         13.53600        6.33300        0.81600
H         13.65900        5.57300        1.41100
C         11.33200        6.37300        1.78100
H         11.67500        5.78400        2.61900
C          9.98300        6.77400        1.69800
H          9.28600        6.48200        2.47200
C          7.06700        5.78300       -0.25100
O          7.26000        5.29800        0.86200
N          6.63800        5.03800       -1.27200
H          6.45000        5.53000       -2.13700
C          6.28600        3.60800       -1.22800
H          5.73900        3.42200       -0.30300
C          5.33800        3.29400       -2.40300
H          5.83200        3.59100       -3.33000
H          5.14900        2.22100       -2.45200
C          3.97700        4.00900       -2.28800
H          3.28500        3.37600       -1.73300
H          4.07600        4.94600       -1.74200
C          3.38300        4.32400       -3.65600
O          2.58900        3.58200       -4.20300
N          3.74400        5.43100       -4.26600
H          3.34100        5.58600       -5.17200
H          4.39700        6.07600       -3.83300
C          7.52500        2.68300       -1.18500
O          7.63200        1.71300       -1.93200
N          8.49100        3.00100       -0.32000
H          8.31300        3.79400        0.28800
C          9.79300        2.33500       -0.18700
H         10.15300        2.10700       -1.19100
C         10.76400        3.35300        0.43700
H         10.70100        4.28300       -0.13100
H         10.42600        3.57000        1.45200
C         12.24300        2.92100        0.45900
H         12.34300        1.88500        0.13600
H         12.80700        3.54100       -0.23900
C         12.85400        3.05900        1.84900
O         13.61200        3.97300        2.13500
N         12.50700        2.19900        2.77700
H         11.81800        1.48400        2.55500
H         12.91100        2.31000        3.68700
C          9.70500        0.98700        0.57000
O         10.38700        0.75200        1.56500
N          8.83700        0.08400        0.13700
H          8.76100       -0.79200        0.62700
H          8.27700        0.28900       -0.68100
