71
0 1
H         -2.15600       10.16400        7.90700
C         -2.19700        9.07600        7.90700
H         -3.22500        8.75000        7.75500
H         -1.82600        8.69000        8.85400
C         -1.34400        8.54400        6.78000
O         -1.84700        7.86800        5.89200
N         -0.04800        8.84600        6.82000
H          0.30500        9.35600        7.61600
C          0.94400        8.38200        5.84300
H          0.64800        7.38300        5.51900
C          0.92200        9.30000        4.59600
H          1.01200        8.64300        3.73100
H         -0.05400        9.77900        4.50700
C          1.99500       10.37500        4.47100
C          2.61200       10.57900        3.22100
H          2.29500       10.00800        2.35900
C          3.64300       11.52600        3.08300
H          4.11700       11.68400        2.12600
C          4.07500       12.26800        4.20000
O          5.13600       13.10600        4.08000
H          5.71100       12.82300        3.35700
C          3.43100       12.10100        5.44200
H          3.75900       12.68400        6.28900
C          2.38200       11.16900        5.57200
H          1.89700       11.04800        6.53100
C          2.33400        8.25400        6.49400
O          2.52200        8.68900        7.63000
N          3.30600        7.67200        5.78500
H          3.08100        7.29800        4.87400
C          4.68100        7.47800        6.28200
H          4.80000        7.99500        7.23600
C          4.89700        5.98000        6.54400
H          5.90800        5.83300        6.92700
H          4.21100        5.66800        7.33400
C          4.70500        5.07200        5.36200
C          3.59000        4.34800        5.11200
H          2.71200        4.33000        5.74800
N          3.74900        3.63700        3.94000
H          3.05100        3.00500        3.57400
C          4.98000        3.87000        3.36800
C          5.59500        3.39500        2.19900
H          5.07800        2.70200        1.55300
C          6.89500        3.82700        1.88800
H          7.38800        3.46700        0.99400
C          7.56300        4.71400        2.75100
H          8.57100        5.03000        2.51800
C          6.93700        5.18000        3.92300
H          7.47300        5.84300        4.58600
C          5.62300        4.78200        4.25900
C          5.77200        8.05700        5.36400
O          6.94500        8.05500        5.72900
N          5.41100        8.55500        4.17800
H          4.42700        8.57600        3.95800
C          6.33800        8.97200        3.11800
H          7.18800        8.28800        3.13700
C          5.67400        8.82500        1.73200
H          4.92000        9.59700        1.59300
H          6.44600        8.97900        0.97600
C          5.01500        7.46200        1.46400
H          4.89700        7.37000        0.38400
H          5.68300        6.66500        1.79100
S          3.37200        7.21800        2.21100
C          2.78400        5.82900        1.20900
H          2.69400        6.14200        0.16800
H          3.49000        5.00200        1.27500
H          1.80900        5.50500        1.57300
C          6.91000       10.38600        3.36100
O          6.77400       11.29500        2.54500
N          7.51100       10.62300        4.51800
H          7.85500       11.54800        4.71100
H          7.58900        9.87400        5.19500
