64
0 1
H         11.24000        1.73300       -2.46700
C         10.35200        2.22600       -2.07600
H         10.63500        2.91900       -1.28500
H          9.65600        1.48500       -1.69000
C          9.69000        3.00300       -3.18900
O         10.22100        3.07400       -4.29000
N          8.53700        3.59300       -2.89000
H          8.17200        3.45800       -1.95400
C          7.70800        4.36600       -3.83300
H          8.33000        4.69300       -4.66700
C          6.60900        3.44300       -4.38900
H          6.04100        3.98700       -5.14600
H          7.08200        2.60000       -4.89500
C          5.64800        2.91200       -3.33800
C          4.48500        3.63800       -3.01000
H          4.27000        4.56700       -3.52400
C          3.61200        3.16800       -2.01000
H          2.72700        3.73100       -1.76100
C          3.90300        1.96200       -1.33500
O          3.06900        1.50200       -0.36700
H          2.30200        2.06500       -0.26000
C          5.06100        1.23000       -1.66800
H          5.27000        0.30900       -1.14600
C          5.93000        1.70400       -2.66900
H          6.81800        1.14200       -2.92300
C          7.11600        5.64100       -3.19600
O          6.24200        6.29200       -3.76400
N          7.56500        5.97100       -1.98400
H          8.27800        5.36500       -1.60200
C          6.84700        6.80700       -1.01100
H          6.12600        7.44600       -1.52400
C          6.09700        5.84800       -0.07200
H          5.50400        6.43100        0.63300
H          5.41100        5.23400       -0.65600
C          7.02500        4.93300        0.69900
N          7.80900        3.91200        0.14800
C          8.51900        3.40400        1.16600
H          9.22500        2.58800        1.07500
N          8.23500        4.05300        2.30800
H          8.64300        3.85500        3.21000
C          7.29900        5.02500        2.03200
H          6.87100        5.74100        2.72100
C          7.77400        7.71700       -0.19000
O          7.31000        8.60900        0.51400
N          9.08600        7.49600       -0.27300
H          9.39200        6.76700       -0.90500
C         10.15900        8.17200        0.46700
H          9.83100        8.31900        1.49600
C         11.37200        7.22300        0.47700
H         12.21700        7.70300        0.97200
H         11.11300        6.33600        1.05700
C         11.78300        6.77100       -0.90400
N         11.13200        5.78600       -1.65500
C         11.76000        5.76000       -2.84200
H         11.50100        5.10500       -3.66500
N         12.74500        6.67300       -2.87400
H         13.34500        6.85700       -3.66600
C         12.76900        7.32800       -1.66200
H         13.40500        8.15400       -1.36900
C         10.50100        9.57700       -0.07500
O         11.65300        9.99500       -0.08400
N          9.52000       10.32800       -0.55400
H          9.74300       11.24000       -0.91500
H          8.56800        9.99600       -0.49100
