64
0 1
H          6.78100        4.53600       -1.24800
C          6.22800        5.43700       -1.50800
H          5.42600        5.60200       -0.79000
H          5.81100        5.33300       -2.50800
C          7.16900        6.61800       -1.48200
O          8.34800        6.46200       -1.18600
N          6.64900        7.80600       -1.78600
H          5.67000        7.84600       -2.02200
C          7.44000        9.03400       -1.95600
H          8.14600        8.87300       -2.77100
C          6.50000       10.18200       -2.35300
H          5.88400       10.44700       -1.49200
H          7.10300       11.05700       -2.60400
C          5.59500        9.86500       -3.53000
C          6.13000        9.81600       -4.83300
H          7.17900       10.02600       -4.99300
C          5.30200        9.49400       -5.92600
H          5.71500        9.45800       -6.92300
C          3.93300        9.21900       -5.71500
O          3.12700        8.90700       -6.76200
H          3.58700        8.95700       -7.60000
C          3.39900        9.26800       -4.41100
H          2.35000        9.06100       -4.26500
C          4.22800        9.59200       -3.32000
H          3.81000        9.63700       -2.32300
C          8.26700        9.43400       -0.72100
O          9.31100       10.06600       -0.86300
N          7.84700        9.03100        0.48300
H          6.99800        8.47800        0.53400
C          8.58400        9.26300        1.73100
H          8.81100       10.32900        1.78200
C          7.68800        8.92400        2.94100
H          8.12500        9.40500        3.81700
H          6.70100        9.36600        2.79400
C          7.53200        7.42600        3.27400
H          8.51400        6.99600        3.47400
H          6.95200        7.33600        4.19300
C          6.82700        6.59700        2.20300
O          6.01200        7.07100        1.42600
N          7.12000        5.32100        2.10800
H          6.65200        4.80100        1.38900
H          7.85000        4.92200        2.67700
C          9.93700        8.52800        1.80200
O         10.75000        8.85200        2.66300
N         10.19400        7.55400        0.91800
H          9.48500        7.31600        0.23400
C         11.49800        6.88300        0.81100
H         11.89600        6.74700        1.81700
C         11.34000        5.49000        0.17500
H         11.07100        5.60800       -0.87600
H         12.30200        4.97800        0.21400
C         10.28600        4.59400        0.84300
H          9.30200        4.98700        0.59500
H         10.35500        3.60200        0.39700
S         10.36700        4.41400        2.65100
C         12.01300        3.67600        2.84300
H         12.07400        2.75500        2.26400
H         12.77500        4.37500        2.49600
H         12.19000        3.45300        3.89500
C         12.54900        7.70600        0.03800
O         13.69500        7.28900       -0.07800
N         12.20100        8.85900       -0.52300
H         12.90500        9.38200       -1.01400
H         11.25500        9.20500       -0.44100
