65
0 1
H          5.47400        5.38700       -3.25500
C          4.66500        5.95200       -2.79400
H          4.22600        5.36700       -1.98700
H          3.90700        6.18000       -3.54100
C          5.22000        7.23900       -2.23200
O          6.42100        7.49500       -2.34200
N          4.34900        8.05400       -1.63000
H          3.38600        7.77700       -1.53700
C          4.80200        9.27100       -0.96000
H          5.57200        9.69600       -1.59400
C          3.73200       10.36200       -0.85600
H          3.33500       10.57900       -1.84800
H          2.91400       10.01900       -0.22100
C          4.34900       11.62700       -0.27800
C          4.14600       11.96700        1.07400
H          3.48300       11.37200        1.68800
C          4.84500       13.05100        1.64300
H          4.70700       13.31000        2.68200
C          5.76100       13.78900        0.86500
O          6.48200       14.79200        1.43000
H          7.29800       14.95900        0.93800
C          5.96300       13.45100       -0.48900
H          6.67000       14.01200       -1.08200
C          5.25200       12.37800       -1.05900
H          5.43200       12.10400       -2.09000
C          5.43000        8.97400        0.40800
O          4.74700        8.58700        1.35300
N          6.73800        9.20900        0.49300
H          7.18500        9.46400       -0.37800
C          7.57100        9.17800        1.70500
H          6.93600        9.31200        2.58200
C          8.29100        7.81400        1.79500
H          8.88600        7.68900        0.88900
H          8.98200        7.84000        2.63800
C          7.38800        6.57600        1.96000
H          6.64800        6.54300        1.16100
C          8.23900        5.30900        1.86100
H          7.60100        4.43000        1.95900
H          8.73200        5.27300        0.89000
H          8.99100        5.29800        2.65000
C          6.67500        6.55700        3.31400
H          6.08200        5.64700        3.40400
H          7.40200        6.59800        4.12400
H          6.00100        7.40900        3.39000
C          8.60100       10.32900        1.71700
O          9.40400       10.45200        2.63800
N          8.62500       11.15200        0.66500
H          7.87600       11.07400       -0.01100
C          9.69000       12.10600        0.36000
H         10.62200       11.72500        0.77900
C          9.88500       12.21000       -1.17200
H          9.02600       12.70900       -1.62300
H         10.75800       12.83900       -1.35000
C         10.12100       10.85300       -1.88300
H         10.57100       11.04400       -2.85700
H         10.82300       10.25300       -1.30400
C          8.84100       10.04700       -2.12200
O          7.71100       10.48600       -1.96500
O          9.00800        8.75200       -2.45600
H          8.12900        8.34500       -2.53700
C          9.41200       13.45500        1.04900
O          9.09000       14.45700        0.41500
N          9.45400       13.48000        2.37400
H          9.64400       12.62400        2.87800
H          9.22600       14.33500        2.85300
