64
0 1
H          8.43200       20.18700      -11.01400
C          7.78900       19.34900      -11.27800
H          6.82600       19.72200      -11.62000
H          7.65300       18.70700      -10.41000
C          8.44400       18.56000      -12.38700
O          9.52900       18.90700      -12.83300
N          7.78000       17.49600      -12.83400
H          6.87100       17.29300      -12.44600
C          8.24000       16.63500      -13.92800
H          8.75300       17.25600      -14.66400
C          9.24300       15.60100      -13.38500
H         10.03300       16.12100      -12.84100
H          8.72900       14.94900      -12.67900
C          9.89100       14.75800      -14.46500
C          9.45800       13.43700      -14.69500
H          8.69500       12.99300      -14.06800
C          9.99700       12.69400      -15.76100
H          9.65500       11.68800      -15.95700
C         10.98400       13.26200      -16.59200
O         11.50000       12.54000      -17.61900
H         12.18500       13.01400      -18.09000
C         11.42600       14.58300      -16.35600
H         12.18300       15.02100      -16.98800
C         10.87600       15.32800      -15.29500
H         11.21000       16.34300      -15.11500
C          7.05500       15.95400      -14.63600
O          5.94800       15.90400      -14.09800
N          7.28600       15.40300      -15.83100
H          8.23600       15.42300      -16.17600
C          6.32300       14.59200      -16.58400
H          5.35800       15.10100      -16.55700
C          6.77200       14.53200      -18.05600
H          6.92900       15.55100      -18.41300
H          7.71900       13.99400      -18.13200
C          5.73800       13.86400      -18.97000
H          5.65400       12.80900      -18.71000
H          4.76800       14.33700      -18.81000
S          6.14500       13.98600      -20.73100
C          4.77000       13.03500      -21.42800
H          3.82400       13.50600      -21.15900
H          4.86300       13.00800      -22.51400
H          4.79400       12.01700      -21.03900
C          6.12400       13.20400      -15.93800
O          6.57700       12.18300      -16.45100
N          5.46100       13.17200      -14.77800
H          5.18200       14.06600      -14.38900
C          5.16600       11.96400      -13.99000
H          6.06400       11.34600      -13.96500
C          4.82400       12.35500      -12.53800
H          3.95000       13.00800      -12.54100
H          4.57200       11.45300      -11.97800
C          5.96300       13.06700      -11.79500
H          6.22600       13.98600      -12.31800
H          5.58800       13.34200      -10.80900
S          7.46000       12.06900      -11.56800
C          8.28500       13.02400      -10.26700
H          7.66900       13.02500       -9.36800
H          9.24900       12.56700      -10.03900
H          8.44300       14.04900      -10.59900
C          4.05800       11.09500      -14.62400
O          2.99400       10.88500      -14.05500
N          4.26900       10.60000      -15.83500
H          5.14100       10.80400      -16.30700
H          3.55200       10.03600      -16.25800
