68
0 1
H         11.91700       10.90700       -0.56500
C         11.15500       11.54000       -0.11300
H         10.39600       11.77500       -0.85700
H         11.60500       12.45800        0.25900
C         10.50300       10.81000        1.03500
O          9.28300       10.75000        1.12400
N         11.31700       10.26000        1.93400
H         12.30900       10.40500        1.83300
C         10.85400        9.46400        3.08200
H         10.25600        8.63100        2.70900
C         12.07800        8.88800        3.81300
H         11.73300        8.28900        4.65800
H         12.60100        8.21200        3.13600
C         13.05600        9.93400        4.32100
C         14.19800       10.26200        3.56100
H         14.40600        9.74200        2.63700
C         15.07800       11.26600        4.01000
H         15.95500       11.52700        3.43800
C         14.82100       11.94200        5.22000
O         15.67300       12.91200        5.64200
H         15.38200       13.31200        6.46200
C         13.68600       11.60500        5.98900
H         13.48900       12.11600        6.91800
C         12.81000       10.59800        5.53900
H         11.93900       10.34000        6.12900
C          9.95700       10.24800        4.06000
O          9.23000        9.64400        4.84300
N          9.99400       11.58200        4.02100
H         10.63600       12.02300        3.37400
C          9.17700       12.47800        4.84300
H          8.99900       12.00100        5.80800
C          9.98000       13.76400        5.09400
H          9.40700       14.41800        5.75200
H         10.90200       13.50300        5.61500
C         10.34800       14.52400        3.84300
N         11.24400       14.08800        2.86000
C         11.32400       15.08700        1.96900
H         11.94700       15.07100        1.08500
N         10.52100       16.10500        2.32800
H         10.40400       16.96800        1.81600
C          9.89700       15.76600        3.50800
H          9.19500       16.36200        4.07600
C          7.78000       12.77700        4.26700
O          7.02800       13.51200        4.90100
N          7.41600       12.23200        3.09700
H          8.10100       11.68800        2.58900
C          6.06600       12.37800        2.52100
H          5.35400       12.45800        3.34400
C          5.98400       13.68400        1.71400
H          4.93800       13.86400        1.46000
H          6.30000       14.51400        2.34700
C          6.80000       13.70000        0.43400
C          6.21800       13.29200       -0.78300
H          5.18800       12.95800       -0.80100
C          6.97700       13.30700       -1.97000
H          6.53000       12.98600       -2.89700
C          8.32100       13.73700       -1.93800
O          9.06600       13.74900       -3.07300
H          8.55700       13.46600       -3.83300
C          8.90100       14.15000       -0.72100
H          9.93000       14.47000       -0.70900
C          8.14100       14.12200        0.46400
H          8.58500       14.41400        1.40400
C          5.58700       11.18700        1.66600
O          4.40800       11.09100        1.34700
N          6.44900       10.25700        1.27500
H          7.43700       10.36500        1.45200
H          6.10200        9.49300        0.72300
