63
0 1
H          9.63700        4.18200       -3.53400
C          9.21900        3.18000       -3.46700
H          9.94300        2.45600       -3.84100
H          8.30400        3.11700       -4.05200
C          8.91300        2.86100       -2.02200
O          9.45500        1.91300       -1.47200
N          8.03600        3.65400       -1.41000
H          7.61700        4.41000       -1.93100
C          7.62500        3.50300       -0.01300
H          7.65900        2.44400        0.25100
C          8.61200        4.25000        0.90000
H          9.55000        3.69400        0.93400
H          8.83100        5.22300        0.45500
C          8.12000        4.48500        2.31900
C          8.30000        3.50600        3.31600
H          8.81500        2.58300        3.08200
C          7.84800        3.74800        4.63100
H          8.01000        3.01800        5.41000
C          7.21900        4.97300        4.94700
O          6.78300        5.22300        6.20800
H          6.55300        4.40900        6.68100
C          7.02300        5.94100        3.94300
H          6.53700        6.87200        4.19500
C          7.47100        5.69600        2.63200
H          7.32100        6.44500        1.86500
C          6.18700        3.99200        0.20500
O          5.77900        5.01500       -0.34200
N          5.44100        3.26600        1.04000
H          5.82200        2.38100        1.33600
C          4.05500        3.56900        1.43100
H          3.91500        4.65000        1.37900
C          3.08900        2.91500        0.42000
H          2.10800        3.37700        0.54300
H          3.42500        3.13200       -0.59500
C          2.91100        1.39400        0.57600
H          2.48200        1.18700        1.55700
H          2.18400        1.06700       -0.16800
S          4.40600        0.38000        0.37500
C          3.71800       -1.26500        0.69600
H          2.95400       -1.49500       -0.04700
H          4.51300       -2.00900        0.63700
H          3.27500       -1.29400        1.69200
C          3.72400        3.14600        2.87700
O          2.58400        3.27100        3.31600
N          4.69500        2.59900        3.61800
H          5.63900        2.64300        3.26800
C          4.48100        1.96600        4.92700
H          3.47600        1.54000        4.94200
C          5.47000        0.79800        5.11400
H          6.49400        1.16900        5.06800
H          5.30700        0.35900        6.10000
C          5.27800       -0.29900        4.05300
H          4.23900       -0.62700        4.05600
H          5.51000        0.09900        3.06700
C          6.16500       -1.52000        4.27900
O          7.02800       -1.63000        5.13500
O          5.94800       -2.53600        3.42400
H          6.57600       -3.21300        3.68200
C          4.52700        2.99400        6.07100
O          5.40800        2.96800        6.92700
N          3.62100        3.96100        6.06400
H          2.93200        3.99000        5.32500
H          3.65800        4.66800        6.78000
