66
0 1
H         11.92900       16.35900       -2.52100
C         12.46300       16.16300       -1.59400
H         12.89700       17.08400       -1.21200
H         13.25400       15.43500       -1.77600
C         11.50500       15.59800       -0.57200
O         11.69400       14.48700       -0.09700
N         10.46800       16.36400       -0.23900
H         10.36800       17.26300       -0.68500
C          9.45100       15.99000        0.74700
H          9.36600       14.90200        0.76800
C          9.90100       16.45300        2.14200
H         10.74800       15.84400        2.46000
H         10.24900       17.48500        2.07000
C          8.82000       16.37800        3.20200
C          8.30100       17.56400        3.75700
H          8.69800       18.52400        3.45500
C          7.27000       17.50200        4.71200
H          6.87900       18.40800        5.15100
C          6.73800       16.25400        5.09700
O          5.69400       16.20100        5.96300
H          5.19700       17.03100        5.95700
C          7.26700       15.06600        4.55100
H          6.86100       14.11700        4.86700
C          8.31400       15.12700        3.61000
H          8.72900       14.21500        3.20500
C          8.07700       16.55700        0.36400
O          7.95900       17.72100       -0.01200
N          7.02800       15.73400        0.46500
H          7.19400       14.81700        0.84700
C          5.67800       16.01000       -0.05700
H          5.79200       16.56600       -0.98900
C          4.97800       14.67300       -0.39200
H          4.78700       14.14300        0.54300
H          4.01200       14.89400       -0.84800
C          5.74800       13.73100       -1.34000
H          6.69600       13.44800       -0.88200
C          4.93400       12.45800       -1.57100
H          3.98500       12.70000       -2.05000
H          5.49300       11.77300       -2.20900
H          4.74000       11.96600       -0.61800
C          6.03100       14.37200       -2.70100
H          6.69800       15.22400       -2.58300
H          6.51600       13.64700       -3.35500
H          5.09900       14.70100       -3.16000
C          4.80900       16.91800        0.84400
O          3.58500       16.82900        0.80500
N          5.43400       17.77400        1.66100
H          6.44000       17.80400        1.56400
C          4.83900       18.69500        2.65200
H          5.67400       19.19900        3.13800
C          4.02400       19.80600        1.96500
H          3.16700       19.37400        1.44800
H          3.64900       20.48000        2.73500
C          4.85800       20.61600        0.96300
H          5.73800       21.01300        1.47000
H          5.20100       19.94700        0.17300
S          3.98100       21.99200        0.16800
C          3.79500       23.14000        1.56000
H          3.33300       24.06200        1.20600
H          3.16000       22.69700        2.32600
H          4.77400       23.36900        1.98100
C          4.04400       18.04300        3.80300
O          4.23700       18.40400        4.96000
N          3.19100       17.06100        3.55600
H          3.03600       16.77200        2.59800
H          2.69800       16.63700        4.32300
