68
0 1
H         13.15100       19.65900       -2.83000
C         13.91800       19.60400       -3.60100
H         14.75900       20.24200       -3.34000
H         13.49800       19.92200       -4.55500
C         14.39100       18.17500       -3.72800
O         14.26500       17.57600       -4.78800
N         14.94400       17.63000       -2.64700
H         14.97100       18.17100       -1.79900
C         15.32200       16.21700       -2.57300
H         15.79400       15.93500       -3.51600
C         16.34900       16.00100       -1.44900
H         17.28100       16.50100       -1.71700
H         15.97500       16.46200       -0.53400
C         16.63100       14.53400       -1.17100
C         15.91700       13.86400       -0.15700
H         15.21200       14.41000        0.45800
C         16.08300       12.47900        0.03100
H         15.52700       11.96600        0.79800
C         16.97000       11.76000       -0.79800
O         17.11600       10.42000       -0.63700
H         16.51600       10.07800        0.03300
C         17.69400       12.43200       -1.80400
H         18.36000       11.86800       -2.43900
C         17.52300       13.81700       -1.99300
H         18.06000       14.32300       -2.78300
C         14.10100       15.30200       -2.37300
O         13.21400       15.60200       -1.57500
N         14.12600       14.13000       -3.01300
H         14.90500       13.94200       -3.62900
C         13.27300       12.98400       -2.69300
H         13.02900       13.01400       -1.63000
C         11.95000       13.06200       -3.47600
H         11.37100       13.91600       -3.12000
H         12.16800       13.21400       -4.53400
C         11.11500       11.81300       -3.32900
N         10.63400       11.30600       -2.11800
C         10.13000       10.09500       -2.40100
H          9.69300        9.42600       -1.67100
N         10.30000        9.80800       -3.70200
H         10.10700        8.91200       -4.13100
C         10.91900       10.88000       -4.30400
H         11.26400       10.94400       -5.32700
C         14.02600       11.66700       -2.94700
O         14.95900       11.61600       -3.74800
N         13.59100       10.59600       -2.28300
H         12.75500       10.72400       -1.72800
C         14.06100        9.21800       -2.45200
H         15.15200        9.22100       -2.43700
C         13.56600        8.37800       -1.26000
H         12.47500        8.33400       -1.28400
H         13.93200        7.35700       -1.37900
C         13.99800        8.89200        0.10200
C         13.18500        9.80400        0.80700
H         12.24500       10.13200        0.38200
C         13.59000       10.28600        2.06700
H         12.96400       10.98300        2.60300
C         14.81200        9.85400        2.62500
O         15.21800       10.32100        3.83300
H         14.54800       10.85600        4.26100
C         15.62600        8.94500        1.91900
H         16.55700        8.61800        2.36000
C         15.21500        8.45800        0.66300
H         15.83400        7.74700        0.12900
C         13.61400        8.62400       -3.80600
O         12.73700        7.76700       -3.88600
N         14.18200        9.09700       -4.90500
H         13.90300        8.72400       -5.79600
H         14.84000        9.86200       -4.82800
