66
0 1
H          2.02700        7.26300       -4.18300
C          3.06000        6.94900       -4.03400
H          3.22100        5.99000       -4.52200
H          3.26300        6.86600       -2.96800
C          3.97700        7.98200       -4.64300
O          3.51000        8.95600       -5.21800
N          5.28400        7.76300       -4.51100
H          5.56600        6.98100       -3.94400
C          6.33300        8.70100       -4.95200
H          5.92500        9.36600       -5.71400
C          6.75300        9.55500       -3.74300
H          7.46100       10.31500       -4.07700
H          5.87800       10.08100       -3.35900
C          7.38800        8.75100       -2.62000
C          8.76900        8.47100       -2.64500
H          9.38500        8.86300       -3.44600
C          9.35000        7.67400       -1.64000
H         10.40700        7.45700       -1.66900
C          8.54700        7.15900       -0.60000
O          9.09400        6.38100        0.36900
H         10.04800        6.33700        0.29900
C          7.16700        7.44800       -0.56800
H          6.56500        7.05500        0.23800
C          6.58900        8.24500       -1.57500
H          5.53200        8.47100       -1.54400
C          7.56400        8.01600       -5.57700
O          8.48500        8.69500       -6.02700
N          7.61800        6.67800       -5.58200
H          6.81300        6.17300       -5.25500
C          8.81800        5.89900       -5.92600
H          9.66700        6.30400       -5.37200
C          8.61700        4.42900       -5.50200
H          7.67200        4.05600       -5.90100
H          9.41500        3.84900       -5.97000
C          8.68700        4.15700       -3.98400
H          9.58900        4.61800       -3.57900
C          7.47500        4.67000       -3.19900
H          6.55200        4.30300       -3.64500
H          7.53500        4.32400       -2.16600
H          7.48100        5.75700       -3.17100
C          8.77500        2.64800       -3.74800
H          8.86800        2.44400       -2.68100
H          7.88300        2.15400       -4.13400
H          9.65400        2.24600       -4.25100
C          9.20200        5.99300       -7.41700
O         10.32300        5.65800       -7.78500
N          8.28800        6.46400       -8.26600
H          7.38300        6.71800       -7.89000
C          8.51000        6.79300       -9.67800
H          9.14900        6.03200      -10.12900
C          7.14200        6.77700      -10.37500
H          7.27200        7.01000      -11.43300
H          6.72100        5.77300      -10.30600
C          6.15600        7.74800       -9.76900
N          5.49500        7.57400       -8.54700
C          4.74700        8.67600       -8.38100
H          4.09000        8.85400       -7.54100
N          4.92400        9.52700       -9.40600
H          4.47500       10.42700       -9.49900
C          5.81400        8.96000      -10.29000
H          6.19000        9.38500      -11.21100
C          9.21100        8.14700       -9.90000
O          9.49500        8.51200      -11.03400
N          9.47900        8.93200       -8.86300
H          9.93900        9.80900       -9.03300
H          9.22000        8.65000       -7.92700
