67
0 1
H          4.64500       12.91400        5.87300
C          4.12500       13.44300        5.07600
H          4.72500       13.43500        4.16800
H          3.94700       14.47200        5.38900
C          2.79900       12.77000        4.81600
O          1.75300       13.38000        5.01100
N          2.84800       11.50900        4.38800
H          3.76000       11.09600        4.27500
C          1.68800       10.70400        3.96500
H          0.91600       11.39500        3.62500
C          2.10300        9.85600        2.74700
H          2.78000       10.44400        2.12500
H          2.66300        8.98500        3.09300
C          0.96200        9.40300        1.85200
C          0.44600        8.09500        1.95000
H          0.84700        7.41200        2.68700
C         -0.60700        7.68000        1.11100
H         -1.00500        6.68200        1.20000
C         -1.13900        8.57500        0.15800
O         -2.15800        8.18900       -0.65300
H         -2.45600        7.30100       -0.45600
C         -0.61400        9.87900        0.04900
H         -1.02900       10.55600       -0.68300
C          0.43100       10.29200        0.89700
H          0.81900       11.29800        0.81700
C          1.04700        9.87100        5.10300
O          0.37500        8.87400        4.85900
N          1.25200       10.24600        6.37200
H          1.84500       11.05100        6.52600
C          0.73900        9.52100        7.55600
H          1.13100        8.50400        7.50500
C          1.28100       10.15300        8.85900
H          0.96600        9.52700        9.69500
H          2.37100       10.13000        8.83700
C          0.80800       11.59400        9.14200
H         -0.28100       11.64300        9.12100
H          1.13800       11.89100       10.13700
C          1.39500       12.57600        8.13700
O          2.57100       12.59000        7.80300
O          0.50000       13.34400        7.48700
H          0.97400       13.72100        6.73100
C         -0.79900        9.37100        7.63000
O         -1.28500        8.57500        8.42500
N         -1.56400       10.11100        6.82200
H         -1.10900       10.75200        6.19000
C         -3.01400        9.93300        6.65200
H         -3.46100        9.71400        7.62300
C         -3.61300       11.25500        6.14200
H         -4.64800       11.09400        5.83400
H         -3.63800       11.95700        6.97600
C         -2.84400       11.89100        4.99600
C         -2.00000       12.98900        5.24900
H         -1.93500       13.40500        6.24600
C         -1.23100       13.54400        4.21000
H         -0.57900       14.38100        4.41000
C         -1.29500       12.99300        2.91400
O         -0.51700       13.50000        1.92300
H          0.00400       14.24100        2.23800
C         -2.15100       11.90200        2.65800
H         -2.20000       11.48800        1.66200
C         -2.92700       11.35400        3.69700
H         -3.57900       10.51400        3.49500
C         -3.39600        8.75600        5.72700
O         -4.56900        8.43000        5.59200
N         -2.45300        8.10300        5.05700
H         -2.73100        7.34000        4.46600
H         -1.48300        8.38000        5.13300
