63
0 1
H         10.47300        7.17600        1.49000
C          9.98300        6.39300        0.91300
H          8.90300        6.48900        1.01400
H         10.30700        5.41800        1.27300
C         10.36200        6.54500       -0.54000
O         11.10800        7.45000       -0.89400
N          9.85500        5.65500       -1.39100
H          9.22100        4.95800       -1.03700
C         10.04900        5.75300       -2.83900
H         11.10000        5.98000       -3.02000
C          9.74300        4.40300       -3.49900
H         10.39600        3.64200       -3.06900
H          8.71300        4.12500       -3.27200
C          9.94400        4.41100       -5.00100
C         11.23000        4.62800       -5.53500
H         12.08000        4.74700       -4.87900
C         11.41100        4.69000       -6.93000
H         12.38700        4.86500       -7.35300
C         10.30700        4.53400       -7.79200
O         10.47100        4.65500       -9.13400
H          9.65400        4.99100       -9.54300
C          9.02700        4.28300       -7.25500
H          8.19300        4.12200       -7.92100
C          8.84600        4.22300       -5.86200
H          7.86400        4.02200       -5.45900
C          9.21500        6.90000       -3.43900
O          8.03100        7.03900       -3.13000
N          9.82700        7.71000       -4.31000
H         10.76500        7.46900       -4.58900
C          9.33900        9.04400       -4.71100
H          9.18400        9.63200       -3.80400
C         10.43200        9.74700       -5.53400
H         10.04500       10.69500       -5.91200
H         11.26900        9.97400       -4.87200
C         10.95000        8.93800       -6.69800
N         10.16500        8.42500       -7.72600
C         11.00100        7.79200       -8.55800
H         10.69600        7.28300       -9.46500
N         12.26200        7.87500       -8.10200
H         13.06900        7.47900       -8.56200
C         12.25100        8.59600       -6.92700
H         13.10000        8.86000       -6.31200
C          7.98200        9.08400       -5.44000
O          7.32600       10.12100       -5.41800
N          7.51400        7.97000       -6.01100
H          8.13900        7.17900       -6.05300
C          6.11100        7.79600       -6.41800
H          5.52100        8.48100       -5.80700
C          5.84900        8.23200       -7.88200
H          4.87000        7.87700       -8.20600
H          5.77300        9.32000       -7.86400
C          6.88900        7.90700       -8.97200
H          6.52700        8.35000       -9.89900
H          7.81600        8.41800       -8.72800
C          7.21300        6.44300       -9.29100
O          8.26100        6.09800       -9.82900
O          6.27800        5.50700       -8.98700
H          5.57300        5.80900       -8.39600
C          5.54600        6.41800       -6.03600
O          4.79600        5.81400       -6.79500
N          5.91700        5.88000       -4.88200
H          6.53100        6.39000       -4.25700
H          5.53000        4.98800       -4.62100
