62
0 1
H          1.34400        8.41200       -2.03700
C          1.53800        8.98500       -2.94200
H          1.75100       10.02100       -2.68000
H          0.67400        8.95100       -3.60300
C          2.73300        8.40400       -3.65800
O          3.70500        9.11200       -3.90000
N          2.65000        7.11700       -3.99600
H          1.82000        6.62100       -3.71700
C          3.73400        6.32600       -4.60800
H          4.67600        6.83900       -4.41400
C          3.81300        4.95600       -3.91300
H          2.97200        4.34900       -4.25200
H          4.72800        4.45300       -4.23200
C          3.80900        5.00500       -2.39200
C          4.76300        5.78500       -1.70700
H          5.50800        6.34100       -2.26000
C          4.74700        5.84700       -0.30100
H          5.47200        6.44400        0.23100
C          3.78000        5.12400        0.42700
O          3.77200        5.18700        1.78400
H          3.11800        4.60300        2.16900
C          2.82700        4.33800       -0.25600
H          2.08800        3.78000        0.29900
C          2.84300        4.28100       -1.66400
H          2.11600        3.67300       -2.18400
C          3.63200        6.18400       -6.14300
O          4.28800        5.33600       -6.74500
N          2.79000        6.98700       -6.80200
H          2.31800        7.70600       -6.26500
C          2.47600        6.88100       -8.23800
H          2.27300        5.82800       -8.43800
C          1.17500        7.65800       -8.54700
H          0.77300        7.27300       -9.48600
H          0.43600        7.44500       -7.77200
C          1.31800        9.18700       -8.70300
H          1.96700        9.41000       -9.55100
H          0.34000        9.61300       -8.92500
C          1.86300        9.88300       -7.46000
O          1.64000        9.53400       -6.30900
O          2.67200       10.93100       -7.70600
H          3.03900       11.20000       -6.85600
C          3.62200        7.27900       -9.19600
O          3.42200        7.28600      -10.40600
N          4.80000        7.65000       -8.68500
H          4.93500        7.55900       -7.68400
C          5.93800        8.13200       -9.48300
H          5.54700        8.76300      -10.28300
C          6.88400        8.99600       -8.62000
H          7.45900        8.35300       -7.95200
H          7.59600        9.47500       -9.29500
C          6.20000       10.10900       -7.79700
H          6.94900       10.85400       -7.52800
H          5.44000       10.60200       -8.40300
C          5.57100        9.60500       -6.49700
O          5.65400        8.45700       -6.08400
O          4.83400       10.51100       -5.82200
H          4.49500       10.02900       -5.03800
C          6.73200        6.99700      -10.16400
O          7.61300        7.25900      -10.97300
N          6.46700        5.73400       -9.85000
H          6.99300        5.00800      -10.30700
H          5.75300        5.52200       -9.17000
