64
0 1
H          8.96700        5.83400       -5.44900
C          8.98600        6.90400       -5.25000
H          8.47400        7.43300       -6.05200
H         10.01800        7.24400       -5.18000
C          8.28900        7.18000       -3.93900
O          7.87900        6.23900       -3.26300
N          8.16500        8.46600       -3.60100
H          8.58800        9.12900       -4.23000
C          7.56600        9.02200       -2.37500
H          7.75700       10.09500       -2.40200
C          6.02500        8.87700       -2.40500
H          5.59800        9.75800       -2.88600
H          5.75400        8.01800       -3.02100
C          5.37600        8.70000       -1.04100
C          5.39300        9.75200       -0.10400
H          5.78900       10.72000       -0.37900
C          4.95600        9.52500        1.21700
H          5.00000       10.31100        1.95500
C          4.50500        8.24600        1.60100
O          4.19200        7.99200        2.89600
H          4.40600        7.07000        3.11500
C          4.44700        7.20600        0.65000
H          4.09900        6.22900        0.95100
C          4.87600        7.43500       -0.67000
H          4.86600        6.62400       -1.38500
C          8.21000        8.56900       -1.04500
O          8.77300        9.39400       -0.32500
N          8.10100        7.28800       -0.68400
H          7.70800        6.65700       -1.37400
C          8.23700        6.81000        0.69900
H          7.61400        7.46000        1.31600
C          7.66100        5.37900        0.76400
H          6.67600        5.38300        0.29700
H          8.29800        4.71900        0.17400
C          7.50100        4.77100        2.17000
H          6.97800        3.81900        2.07800
H          8.48200        4.56100        2.59500
C          6.71400        5.66100        3.12900
O          5.49800        5.59800        3.22800
N          7.36800        6.54600        3.84600
H          6.83300        7.13900        4.45400
H          8.37000        6.65000        3.71600
C          9.66900        6.90100        1.26800
O          9.87500        6.71500        2.46700
N         10.65800        7.18700        0.41900
H         10.39500        7.40500       -0.53500
C         12.07900        7.29100        0.76100
H         12.31200        6.52500        1.50200
C         12.94400        7.02800       -0.49300
H         12.93500        7.91400       -1.13100
H         13.97300        6.88300       -0.16100
C         12.53600        5.79700       -1.33400
H         13.34500        5.56000       -2.02500
H         12.40100        4.94200       -0.67100
C         11.26600        6.01400       -2.16000
O         10.90200        7.12300       -2.51100
N         10.49100        4.98900       -2.43800
H         10.73700        4.05900       -2.15500
H          9.60800        5.20700       -2.88600
C         12.44500        8.65100        1.39000
O         13.54600        8.81900        1.90000
N         11.56000        9.64300        1.36000
H         11.81300       10.52200        1.77800
H         10.65900        9.50700        0.92200
