72
0 1
H          5.60400        8.64500        3.57800
C          4.75200        8.56200        2.90600
H          4.12300        9.44500        2.99700
H          4.17600        7.67400        3.16100
C          5.24300        8.44200        1.48300
O          4.89500        7.48800        0.79100
N          6.04300        9.41200        1.04500
H          6.32900       10.12700        1.69600
C          6.65500        9.43200       -0.28600
H          6.20400        8.65200       -0.89200
C          6.35900       10.76500       -0.98800
H          5.28400       10.94700       -0.96600
H          6.84500       11.57800       -0.44500
C          6.83200       10.77800       -2.42900
C          5.92700       10.48600       -3.46900
H          4.88300       10.30900       -3.24600
C          6.38200       10.41100       -4.80000
H          5.70200       10.18100       -5.60600
C          7.74700       10.61200       -5.08900
O          8.20100       10.45600       -6.35700
H          9.13400       10.19200       -6.34600
C          8.65000       10.92200       -4.05000
H          9.69300       11.08800       -4.27900
C          8.18900       11.01800       -2.72500
H          8.88300       11.26200       -1.93000
C          8.16200        9.15500       -0.21200
O          8.89000        9.89100        0.45200
N          8.63300        8.13700       -0.94000
H          7.96900        7.57300       -1.45200
C         10.02900        7.66700       -0.90100
H         10.66400        8.48900       -0.56800
C         10.15700        6.52400        0.12800
H          9.70400        5.62600       -0.29300
H         11.21600        6.30900        0.28000
C          9.52700        6.79200        1.48400
C         10.15200        7.67200        2.39000
H         11.08300        8.14900        2.11800
C          9.55100        7.95700        3.63100
H         10.02600        8.64400        4.31200
C          8.31800        7.35700        3.96800
O          7.72400        7.63900        5.15600
H          8.30500        8.13300        5.73500
C          7.69500        6.47200        3.06500
H          6.75400        6.01500        3.33100
C          8.30000        6.19000        1.82600
H          7.81600        5.51400        1.13500
C         10.55100        7.24200       -2.29000
O         11.40900        6.36800       -2.39600
N          9.97200        7.78200       -3.37000
H          9.32700        8.54600       -3.23100
C          9.93900        7.10300       -4.67400
H         10.48800        6.16500       -4.58800
C          8.48200        6.73200       -5.01100
H          7.99100        7.61300       -5.42500
H          8.48300        5.96500       -5.78600
C          7.66400        6.23000       -3.82600
C          8.11000        5.13000       -3.06400
H          9.01100        4.60200       -3.34700
C          7.41000        4.74100       -1.90600
H          7.75800        3.91500       -1.30400
C          6.25500        5.44500       -1.50600
O          5.62800        5.11900       -0.34900
H          5.19600        5.89300        0.05200
C          5.79000        6.52300       -2.28600
H          4.89300        7.04700       -1.98600
C          6.49500        6.91600       -3.44000
H          6.14000        7.75000       -4.02700
C         10.61000        7.90200       -5.80400
O         10.53000        9.12500       -5.87000
N         11.24900        7.22100       -6.74500
H         11.68500        7.73800       -7.49200
H         11.31700        6.21800       -6.69200
