67
0 1
H         14.41600       18.09000       -2.93600
C         13.99000       17.31400       -3.56900
H         14.65100       16.44900       -3.58200
H         13.86100       17.68900       -4.58200
C         12.64800       16.90000       -3.01500
O         12.46100       15.75200       -2.63000
N         11.70000       17.83400       -2.98100
H         11.93600       18.76000       -3.30100
C         10.38600       17.64500       -2.34900
H         10.54700       17.43500       -1.29000
C          9.58300       18.94900       -2.46400
H          9.27700       19.08300       -3.50300
H          8.67400       18.85300       -1.86800
C         10.33100       20.18800       -2.00500
C         10.61600       20.36900       -0.63800
H         10.28400       19.63700        0.08600
C         11.33400       21.50300       -0.21100
H         11.55700       21.65200        0.83500
C         11.76600       22.46100       -1.15000
O         12.45500       23.55300       -0.73000
H         12.63600       24.16600       -1.44200
C         11.48100       22.28100       -2.52200
H         11.80800       23.01500       -3.24200
C         10.76500       21.14500       -2.94600
H         10.54100       21.01300       -3.99600
C          9.57000       16.47100       -2.91900
O          8.75000       15.89400       -2.20800
N          9.81200       16.07600       -4.17300
H         10.53800       16.55700       -4.69200
C          9.16100       14.92400       -4.80800
H          8.08900       15.02600       -4.63000
C          9.37100       14.96600       -6.33600
H          8.61900       14.30800       -6.77400
H          9.16400       15.97100       -6.70500
C         10.74000       14.49600       -6.87300
H         11.01800       13.54200       -6.42700
H         10.63500       14.32400       -7.94400
C         11.89200       15.48200       -6.68900
O         11.84700       16.54300       -6.07600
O         13.03300       15.11300       -7.30000
H         13.69500       15.76600       -7.06900
C          9.56500       13.56400       -4.20400
O          8.92800       12.56100       -4.51200
N         10.60500       13.51000       -3.36300
H         11.13300       14.35700       -3.17800
C         10.98200       12.31100       -2.60500
H         10.72900       11.43000       -3.19600
C         12.50300       12.30700       -2.37900
H         12.73700       13.07700       -1.64200
H         12.78700       11.34700       -1.94700
C         13.35800       12.53700       -3.61800
C         13.09700       11.83900       -4.81600
H         12.28500       11.12600       -4.86000
C         13.88900       12.06800       -5.95800
H         13.68100       11.53700       -6.87400
C         14.95700       12.99000       -5.90000
O         15.71600       13.23300       -7.00000
H         15.40000       12.74700       -7.76100
C         15.22700       13.68000       -4.70200
H         16.04900       14.37800       -4.66600
C         14.42800       13.45200       -3.56500
H         14.63000       13.98700       -2.64700
C         10.21900       12.16500       -1.27100
O         10.40100       11.18700       -0.55600
N          9.36700       13.11300       -0.89400
H          8.87600       12.99300       -0.02500
H          9.21100       13.92500       -1.47500
