63
0 1
H          9.67000       14.54000       -1.26500
C         10.34000       13.82000       -1.73300
H         11.15900       13.58000       -1.05800
H         10.73900       14.24100       -2.65500
C          9.57000       12.56200       -2.05700
O          9.45300       12.20300       -3.22200
N          9.04300       11.91200       -1.02200
H          9.15600       12.32300       -0.11100
C          8.18400       10.72300       -1.10900
H          8.48200       10.12900       -1.97500
C          8.41000        9.87300        0.15300
H          9.38600        9.39200        0.07800
H          8.44700       10.53800        1.01800
C          7.35800        8.81400        0.43600
C          6.28700        9.11200        1.30300
H          6.20100       10.09900        1.73800
C          5.33000        8.12700        1.61000
H          4.51100        8.34400        2.27900
C          5.44000        6.83900        1.05100
O          4.51000        5.89500        1.34600
H          4.43100        5.24500        0.63200
C          6.50100        6.54500        0.16700
H          6.58300        5.55400       -0.25400
C          7.45600        7.53400       -0.14300
H          8.27100        7.30600       -0.81800
C          6.69800       11.08500       -1.27700
O          6.20200       12.01900       -0.64900
N          5.97800       10.30800       -2.09100
H          6.49100        9.60300       -2.61100
C          4.52200       10.40400       -2.31300
H          4.07600       10.91600       -1.45900
C          4.20100       11.21900       -3.58900
H          4.37500       10.59400       -4.46700
H          3.13400       11.44700       -3.56900
C          4.95400       12.55000       -3.77100
H          4.42800       13.15600       -4.50800
H          4.95700       13.10000       -2.83000
C          6.38900       12.37100       -4.26600
O          6.83500       11.36000       -4.79900
O          7.19000       13.43100       -4.06000
H          8.08900       13.08400       -4.17000
C          3.83900        9.02200       -2.41900
O          2.62700        8.93800       -2.60400
N          4.60600        7.92900       -2.37100
H          5.58900        8.05600       -2.16000
C          4.19700        6.57900       -2.77300
H          3.47200        6.67000       -3.58300
C          5.41600        5.80500       -3.33000
H          6.18800        5.73000       -2.56500
H          5.09000        4.79100       -3.56800
C          6.03100        6.40100       -4.61400
H          6.76200        5.69600       -5.01000
H          5.24200        6.51100       -5.35900
C          6.73700        7.74500       -4.42700
O          7.24900        8.07900       -3.36800
N          6.73300        8.59800       -5.42400
H          7.09300        9.53400       -5.23900
H          6.32000        8.36800       -6.30700
C          3.47400        5.83800       -1.63100
O          3.92700        4.81000       -1.13500
N          2.36900        6.38600       -1.14700
H          2.04200        7.26300       -1.53300
H          1.90600        5.94500       -0.37000
