63
0 1
H         -4.75300        8.14700       -0.43800
C         -4.24400        7.77100        0.44800
H         -4.41300        6.70100        0.54800
H         -4.61900        8.28500        1.33100
C         -2.76100        8.03200        0.32200
O         -2.18700        8.72900        1.14800
N         -2.14500        7.47500       -0.71800
H         -2.68900        6.93500       -1.37400
C         -0.71600        7.62100       -1.01100
H         -0.38900        8.61100       -0.68900
C          0.08100        6.56800       -0.21900
H         -0.08600        6.72800        0.84700
H         -0.30700        5.57800       -0.46500
C          1.57800        6.58800       -0.47600
C          2.17700        5.60100       -1.28600
H          1.57400        4.81000       -1.71000
C          3.56400        5.63700       -1.53900
H          4.02800        4.87400       -2.14500
C          4.35400        6.66900       -0.98600
O          5.69200        6.71400       -1.21800
H          5.99700        5.99300       -1.79100
C          3.75000        7.66100       -0.18600
H          4.36400        8.44600        0.22800
C          2.36600        7.61900        0.07100
H          1.91000        8.37700        0.69400
C         -0.44400        7.50100       -2.51700
O         -1.19200        6.84000       -3.23800
N          0.64900        8.10600       -2.98400
H          1.23700        8.60100       -2.32600
C          1.21200        7.89500       -4.31600
H          0.98700        6.87100       -4.61800
C          0.55900        8.86300       -5.32500
H         -0.51100        8.65400       -5.36200
H          0.68700        9.88400       -4.96100
C          1.11500        8.79500       -6.75900
H          0.56100        9.50200       -7.37700
H          2.16000        9.10200       -6.76600
C          1.01400        7.40400       -7.38300
O          1.63700        6.42000       -7.00700
O          0.17600        7.30000       -8.43200
H          0.21600        6.38300       -8.70800
C          2.73700        8.04500       -4.24300
O          3.23800        8.95100       -3.57800
N          3.47600        7.16100       -4.91600
H          2.99200        6.50200       -5.51700
C          4.93000        7.01000       -4.76700
H          5.17200        7.21300       -3.72300
C          5.31400        5.54700       -5.04100
H          4.54400        4.89100       -4.63200
H          5.36600        5.36600       -6.11600
C          6.61700        5.16400       -4.39100
N          6.76500        4.82600       -3.04400
C          8.07800        4.61500       -2.86300
H          8.53000        4.33600       -1.92000
N          8.74900        4.81600       -4.01100
H          9.75000        4.74300       -4.12600
C          7.84300        5.16900       -4.98500
H          8.04700        5.44200       -6.01300
C          5.74500        8.03300       -5.58200
O          6.56800        7.69000       -6.42300
N          5.49600        9.31800       -5.37900
H          6.01500       10.00000       -5.90500
H          4.81200        9.58300       -4.68200
