64
0 1
H          9.90400       11.48000      -16.00500
C          9.81700       12.48000      -15.58500
H          8.77700       12.80100      -15.59500
H         10.41900       13.17500      -16.16900
C         10.32400       12.47300      -14.16200
O         11.26900       13.18000      -13.84200
N          9.69300       11.66700      -13.31000
H          8.92800       11.10700      -13.65300
C         10.03000       11.53300      -11.88900
H         11.09800       11.71800      -11.76400
C          9.26800       12.61000      -11.09300
H          9.69000       13.58500      -11.33800
H          8.23300       12.60900      -11.43700
C          9.25900       12.46600       -9.57900
C          8.05800       12.68900       -8.87700
H          7.16500       12.98600       -9.41000
C          8.00700       12.51400       -7.48100
H          7.08300       12.67400       -6.94500
C          9.15700       12.09500       -6.78200
O          9.08500       11.83700       -5.45200
H          8.17000       11.62600       -5.19700
C         10.37100       11.91600       -7.47500
H         11.24700       11.61000       -6.92700
C         10.42700       12.12000       -8.86800
H         11.36700       11.99400       -9.38500
C          9.74100       10.10400      -11.40100
O          8.68300        9.53700      -11.67600
N         10.69600        9.50700      -10.68700
H         11.51900       10.05400      -10.45500
C         10.73900        8.10500      -10.24400
H         10.41300        7.47600      -11.07300
C         12.20900        7.76400       -9.94100
H         12.29100        6.73200       -9.59600
H         12.78300        7.84200      -10.86500
C         12.83600        8.68700       -8.92400
N         13.31100        9.97300       -9.19600
C         13.72800       10.46500       -8.02000
H         14.15900       11.44900       -7.88600
N         13.51700        9.57400       -7.03500
H         13.72600        9.71800       -6.05700
C         12.94900        8.44700       -7.58700
H         12.61600        7.55400       -7.07300
C          9.80400        7.76800       -9.06200
O         10.15200        6.96300       -8.20200
N          8.60800        8.36100       -9.00600
H          8.36300        8.99100       -9.76100
C          7.67800        8.22600       -7.87300
H          8.23700        8.48500       -6.97200
C          6.54400        9.25300       -8.05800
H          6.99100       10.22000       -8.26600
H          5.95600        8.97400       -8.93400
C          5.58300        9.42200       -6.86500
H          4.91300       10.25600       -7.07600
H          4.96700        8.52900       -6.76300
C          6.29200        9.69900       -5.54000
O          6.56500       10.82900       -5.17000
N          6.64300        8.68200       -4.78700
H          6.49800        7.73500       -5.12600
H          7.11200        8.88600       -3.92400
C          7.11800        6.80000       -7.66000
O          6.59300        6.49000       -6.59400
N          7.20200        5.91200       -8.64200
H          7.66200        6.16100       -9.50100
H          6.85400        4.98200       -8.47700
