63
0 1
H          2.53800        3.23800       -5.73200
C          1.74900        2.48700       -5.74300
H          2.17100        1.50100       -5.55500
H          1.25200        2.49800       -6.71200
C          0.74400        2.81400       -4.66500
O          0.92200        3.77500       -3.92700
N         -0.30300        1.99800       -4.55800
H         -0.36300        1.23200       -5.21100
C         -1.48500        2.25000       -3.71700
H         -1.89600        3.21500       -4.01600
C         -2.54400        1.17600       -4.01200
H         -2.21100        0.22900       -3.58300
H         -3.47400        1.45100       -3.51200
C         -2.83300        0.97900       -5.49000
C         -3.51200        1.98100       -6.21100
H         -3.84400        2.87800       -5.70400
C         -3.75500        1.82200       -7.58900
H         -4.27400        2.59200       -8.13800
C         -3.31700        0.65300       -8.24900
O         -3.54400        0.48800       -9.57700
H         -4.04900        1.21200       -9.95000
C         -2.63800       -0.35000       -7.52700
H         -2.31300       -1.24100       -8.04300
C         -2.39700       -0.18800       -6.14900
H         -1.88300       -0.96500       -5.59900
C         -1.22800        2.34700       -2.20000
O         -2.12600        2.73800       -1.46000
N         -0.01900        2.03400       -1.72200
H          0.67400        1.69100       -2.37800
C          0.41800        2.33800       -0.35200
H         -0.38800        2.04100        0.32100
C          1.65500        1.48900        0.01200
H          1.74700        1.50800        1.09900
H          1.47800        0.45000       -0.27200
C          3.00900        1.95500       -0.56300
H          3.17700        3.00500       -0.32400
H          3.80000        1.38800       -0.07400
C          3.17600        1.75600       -2.06800
O          2.44700        1.08800       -2.79000
O          4.24300        2.38200       -2.59800
H          4.22300        2.20100       -3.53800
C          0.66100        3.84400       -0.10200
O          0.82700        4.24000        1.04800
N          0.70500        4.66500       -1.16100
H          0.59300        4.23400       -2.07300
C          0.84300        6.13500       -1.19400
H          0.86300        6.40500       -2.25100
C         -0.40300        6.82000       -0.60100
H         -0.38200        6.71700        0.48500
H         -0.36000        7.88400       -0.83700
C         -1.74200        6.26500       -1.11000
H         -1.85600        5.24100       -0.75500
H         -2.54200        6.85400       -0.66100
S         -1.96900        6.28200       -2.91100
C         -3.63100        5.56800       -3.00000
H         -3.63200        4.57900       -2.54000
H         -4.33400        6.21100       -2.47100
H         -3.93400        5.48200       -4.04300
C          2.13700        6.74000       -0.61100
O          2.55800        7.80800       -1.03600
N          2.81500        6.09700        0.32800
H          2.41400        5.26700        0.74000
H          3.65500        6.51900        0.68600
