70
0 1
H         -0.70200        1.15300       -1.84000
C         -0.37800        2.14100       -1.51500
H          0.67400        2.27700       -1.75800
H         -0.52900        2.23900       -0.44200
C         -1.19700        3.18500       -2.23500
O         -2.06000        2.85100       -3.03900
N         -0.93400        4.46000       -1.95400
H         -0.19800        4.67100       -1.29900
C         -1.60700        5.57400       -2.62600
H         -2.66500        5.32300       -2.71100
C         -1.52300        6.84600       -1.76900
H         -1.98200        6.65000       -0.79900
H         -0.47400        7.09100       -1.59500
C         -2.22000        8.04100       -2.39900
C         -3.62700        8.07200       -2.49200
H         -4.21600        7.27100       -2.07000
C         -4.26700        9.14900       -3.13600
H         -5.34300        9.17900       -3.22100
C         -3.50100       10.20700       -3.67200
O         -4.10800       11.22000       -4.34200
H         -4.81600       10.87700       -4.90800
C         -2.09700       10.18400       -3.56300
H         -1.52000       10.99100       -3.98800
C         -1.45900        9.09900       -2.93400
H         -0.37900        9.06500       -2.88800
C         -1.07900        5.77400       -4.06000
O         -0.21000        6.60200       -4.31700
N         -1.62500        5.00300       -5.00300
H         -2.22100        4.24200       -4.69500
C         -1.43900        5.20200       -6.44900
H         -0.41000        5.50700       -6.64400
C         -1.71700        3.86700       -7.16900
H         -2.76700        3.61000       -7.01700
H         -1.56600        4.01500       -8.23900
C         -0.85600        2.67200       -6.71300
H         -1.00700        2.49100       -5.65000
C         -1.28600        1.41600       -7.47000
H         -2.33800        1.21200       -7.27000
H         -1.14000        1.55300       -8.54200
H         -0.69800        0.56300       -7.13100
C          0.63500        2.90100       -6.96600
H          1.19700        2.01000       -6.68600
H          0.80800        3.11900       -8.02000
H          0.99100        3.73400       -6.36100
C         -2.35100        6.30800       -7.02200
O         -2.20000        6.72500       -8.16700
N         -3.33900        6.74700       -6.24100
H         -3.35900        6.38600       -5.30300
C         -4.55300        7.42500       -6.70700
H         -4.71200        7.13300       -7.74600
C         -5.74600        6.88400       -5.89800
H         -5.72400        7.31500       -4.89700
H         -6.67400        7.20000       -6.37600
C         -5.73300        5.36800       -5.78300
C         -5.25800        4.75100       -4.60700
H         -4.98700        5.35100       -3.75100
C         -5.12000        3.35100       -4.55100
H         -4.73900        2.86600       -3.66300
C         -5.47200        2.56200       -5.66500
O         -5.33000        1.21300       -5.60900
H         -5.65300        0.78100       -6.40000
C         -5.96100        3.17700       -6.83800
H         -6.22600        2.57700       -7.69500
C         -6.08500        4.57900       -6.89600
H         -6.43400        5.05300       -7.80300
C         -4.43300        8.96000       -6.71500
O         -5.33400        9.68000       -6.28800
N         -3.29600        9.48800       -7.14600
H         -2.57000        8.87800       -7.49400
H         -3.18000       10.48700       -7.11900
