64
0 1
H         -7.64000        5.73900       -0.85800
C         -7.06200        6.01700       -1.73700
H         -7.16900        7.08300       -1.93100
H         -7.41300        5.45200       -2.60000
C         -5.60500        5.69500       -1.50200
O         -5.02300        4.90800       -2.23600
N         -5.02100        6.30300       -0.47200
H         -5.57600        6.91400        0.10800
C         -3.62200        6.10900       -0.08000
H         -3.33400        5.08300       -0.31600
C         -2.72200        7.05400       -0.89700
H         -2.74700        6.75000       -1.94400
H         -3.13100        8.06400       -0.83600
C         -1.27700        7.08200       -0.43500
C         -0.50600        5.90200       -0.46900
H         -0.91600        4.99200       -0.88900
C          0.78800        5.88900        0.08600
H          1.37100        4.98000        0.10300
C          1.32400        7.06400        0.64900
O          2.54400        7.04800        1.24100
H          2.59900        7.74900        1.90700
C          0.57300        8.25700        0.63300
H          1.01000        9.16000        1.02800
C         -0.73200        8.26300        0.10500
H         -1.31100        9.17700        0.11500
C         -3.43400        6.29500        1.43600
O         -4.18400        7.03000        2.07900
N         -2.42000        5.63700        2.00300
H         -1.83800        5.06900        1.39600
C         -2.15500        5.49300        3.44200
H         -3.02000        5.02000        3.90700
C         -0.94200        4.56100        3.61100
H         -0.05000        5.07000        3.24200
H         -0.79600        4.35800        4.67300
C         -1.06900        3.24700        2.87600
N         -0.97700        3.08600        1.49000
C         -1.17000        1.78100        1.25600
H         -1.15900        1.32600        0.27300
N         -1.38200        1.12400        2.41000
H         -1.55500        0.13200        2.49300
C         -1.32500        2.03300        3.44300
H         -1.46000        1.83700        4.49800
C         -1.91000        6.80000        4.20800
O         -2.01700        6.80200        5.43200
N         -1.58900        7.90100        3.52100
H         -1.47200        7.80800        2.52200
C         -1.42800        9.23900        4.12000
H         -1.53800        9.15600        5.20200
C         -0.01000        9.77600        3.85300
H          0.07000       10.04800        2.80300
H          0.13000       10.69000        4.43100
C          1.12300        8.83700        4.20800
N          2.36200        8.78900        3.56100
C          3.09900        7.89600        4.24000
H          4.12000        7.63000        3.99500
N          2.39200        7.37900        5.25800
H          2.73000        6.69400        5.91800
C          1.14900        7.97000        5.26300
H          0.34900        7.80200        5.97200
C         -2.51800       10.23700        3.68800
O         -2.39400       11.43400        3.90900
N         -3.59500        9.78800        3.05500
H         -4.30100       10.45300        2.78800
H         -3.71600        8.79800        2.88600
