67
0 1
H          3.80900        7.12900        3.24200
C          4.85400        7.30700        3.49200
H          5.39800        6.36400        3.49000
H          4.92300        7.76500        4.47700
C          5.45800        8.23700        2.46700
O          4.77600        8.65200        1.53700
N          6.74300        8.53600        2.63100
H          7.21300        8.14300        3.44100
C          7.52600        9.47600        1.81100
H          6.90300        9.84200        0.99600
C          7.89900       10.69100        2.68300
H          8.45400       11.40900        2.07800
H          6.97800       11.18800        2.99200
C          8.71300       10.35800        3.92500
C         10.11700       10.25800        3.85300
H         10.62600       10.45000        2.91600
C         10.86300        9.91300        4.99600
H         11.94000        9.84200        4.94800
C         10.20700        9.67700        6.22100
O         10.93100        9.31800        7.31100
H         10.39700        9.28400        8.10500
C          8.80200        9.78800        6.30100
H          8.29500        9.60100        7.23500
C          8.06000       10.13200        5.15400
H          6.98400       10.21000        5.21300
C          8.76200        8.82300        1.15500
O          9.69300        9.51400        0.74800
N          8.81700        7.48600        1.10700
H          7.97900        6.98400        1.35100
C         10.05200        6.71100        0.90100
H         10.85700        7.25400        1.40000
C          9.95400        5.32600        1.58800
H          9.45500        4.62700        0.91500
H         10.97100        4.96100        1.73700
C          9.20600        5.23900        2.93600
H          8.14000        5.13200        2.73000
H          9.53500        4.33900        3.45500
C          9.37600        6.42800        3.87900
O          8.43700        7.00700        4.40800
O         10.63200        6.88500        4.04300
H         10.56200        7.67300        4.59100
C         10.47200        6.60900       -0.58500
O         10.59000        5.51400       -1.13400
N         10.64800        7.74900       -1.25800
H         10.56000        8.61800       -0.74200
C         10.75100        7.84100       -2.72000
H         10.79700        6.83300       -3.13300
C          9.48500        8.51200       -3.28300
H          9.59000        9.59100       -3.15800
H          9.42600        8.31300       -4.35400
C          8.17800        8.07700       -2.63500
C          7.34400        9.03800       -2.02900
H          7.61000       10.08600       -2.06600
C          6.17500        8.63700       -1.35600
H          5.53500        9.37200       -0.89000
C          5.84300        7.26900       -1.27300
O          4.76400        6.87600       -0.55100
H          4.51100        7.56400        0.08400
C          6.66500        6.30700       -1.89600
H          6.40200        5.26300       -1.82600
C          7.82600        6.71200       -2.58100
H          8.46900        5.96800       -3.03200
C         12.02200        8.57400       -3.17900
O         12.54200        9.45000       -2.49900
N         12.52900        8.25200       -4.36100
H         13.35700        8.73600       -4.66500
H         12.10100        7.53400       -4.92100
