64
0 1
H         16.01300        5.79700        0.56900
C         15.27400        4.99900        0.53400
H         15.73000        4.06500        0.86000
H         14.89700        4.88600       -0.48000
C         14.12800        5.33600        1.45800
O         13.85000        4.59100        2.39800
N         13.46000        6.46100        1.19900
H         13.71200        7.01400        0.39600
C         12.27800        6.83600        1.97200
H         12.50400        6.62100        3.01300
C         11.96900        8.33800        1.90800
H         12.83000        8.89900        2.27300
H         11.78300        8.62800        0.87300
C         10.75600        8.67400        2.76200
C          9.49300        8.85800        2.16500
H          9.39400        8.84400        1.08700
C          8.34800        9.02100        2.97000
H          7.37300        9.15100        2.52400
C          8.46000        8.99000        4.37600
O          7.34900        9.08800        5.14900
H          7.49800        8.72800        6.03500
C          9.72500        8.81000        4.97400
H          9.81000        8.77900        6.05000
C         10.86800        8.66000        4.16700
H         11.83200        8.49300        4.63100
C         11.04300        6.01400        1.57800
O         10.64900        5.96200        0.41200
N         10.39500        5.42400        2.57800
H         10.84400        5.47700        3.48500
C          9.05100        4.83300        2.49800
H          8.43700        5.49400        1.88500
C          9.15400        3.45100        1.81300
H          9.96700        3.44900        1.08600
H          9.40600        2.70500        2.57000
C          7.87400        3.00400        1.08300
H          8.02400        1.97600        0.75300
H          7.03500        3.00700        1.77600
C          7.48100        3.82100       -0.15300
O          6.41300        3.64000       -0.70800
N          8.27600        4.74100       -0.65800
H          7.92800        5.21500       -1.47000
H          9.17200        4.97900       -0.24400
C          8.36700        4.75600        3.88300
O          7.33900        4.10600        4.05600
N          8.96300        5.37700        4.90500
H          9.76400        5.96400        4.70800
C          8.59200        5.23900        6.31200
H          8.18800        4.23800        6.47000
C          9.85000        5.37700        7.20100
H         10.23700        6.39600        7.14500
H          9.54300        5.20200        8.23300
C         10.98700        4.37700        6.87000
H         11.67200        4.34200        7.71600
H         10.56200        3.38100        6.74400
C         11.81000        4.73700        5.62800
O         11.75000        5.83700        5.10800
N         12.56300        3.82500        5.05300
H         12.64600        2.90200        5.43300
H         13.07700        4.10400        4.21800
C          7.47500        6.23700        6.66200
O          7.70000        7.28200        7.26800
N          6.25800        5.96700        6.21200
H          5.51700        6.62700        6.38500
H          6.11400        5.15300        5.63000
