68
0 1
H          9.57700        4.93400        6.48600
C          9.36600        4.18800        5.72300
H          8.28900        4.09700        5.58800
H          9.77800        3.22500        6.01800
C          9.98800        4.61600        4.41500
O          9.28900        4.79800        3.42600
N         11.30800        4.78300        4.40300
H         11.82900        4.57600        5.23900
C         12.05300        5.08400        3.17800
H         11.50900        5.85000        2.62400
C         13.43200        5.66000        3.53000
H         13.29700        6.63100        4.00700
H         13.91000        5.00300        4.25800
C         14.37000        5.81700        2.34400
C         15.27300        4.78200        2.03300
H         15.28100        3.87300        2.62200
C         16.18000        4.92900        0.96700
H         16.88900        4.14800        0.73500
C         16.18900        6.11300        0.20400
O         17.09200        6.24700       -0.80000
H         16.89300        6.99300       -1.39400
C         15.26000        7.13800        0.49000
H         15.27600        8.04700       -0.09400
C         14.35300        6.99000        1.56100
H         13.66800        7.79200        1.80200
C         12.18000        3.84600        2.27600
O         12.69100        2.81100        2.69500
N         11.78200        3.99700        1.01100
H         11.25800        4.82900        0.78700
C         11.96800        3.01100       -0.06500
H         12.76400        2.32500        0.22800
C         10.67600        2.18800       -0.22700
H         10.88600        1.34400       -0.88500
H         10.39900        1.77100        0.74300
C          9.49300        2.96300       -0.78500
C          8.69500        3.75000        0.06800
H          8.90200        3.78300        1.12900
C          7.61600        4.48700       -0.45400
H          7.00000        5.09200        0.19500
C          7.32000        4.42800       -1.83100
O          6.27300        5.13700       -2.32800
H          6.08900        4.91800       -3.24200
C          8.10900        3.62900       -2.68700
H          7.88300        3.57500       -3.74000
C          9.19300        2.89900       -2.16100
H          9.80000        2.28500       -2.81500
C         12.42100        3.67100       -1.38600
O         12.31300        3.07900       -2.45600
N         12.87900        4.92900       -1.31300
H         13.03400        5.28400       -0.38200
C         13.20100        5.85100       -2.41700
H         13.43300        6.79600       -1.92800
C         14.49300        5.38600       -3.12200
H         15.23100        5.12800       -2.36400
H         14.28200        4.48200       -3.69500
C         15.12100        6.42400       -4.06900
H         16.08500        6.04700       -4.41000
H         14.48800        6.54400       -4.94800
C         15.34100        7.78400       -3.41000
O         16.27300        7.99900       -2.65200
N         14.46600        8.74000       -3.62100
H         14.64300        9.62900       -3.19300
H         13.60900        8.52700       -4.12100
C         12.05800        6.19100       -3.40700
O         12.09500        7.23700       -4.04900
N         11.01100        5.38800       -3.52900
H         10.27300        5.65000       -4.16100
H         11.00600        4.49800       -3.05200
