66
0 1
H          5.13700        6.23300        2.93400
C          4.61900        7.19000        2.90700
H          4.31700        7.47000        3.91500
H          3.73800        7.12100        2.27100
C          5.54200        8.25200        2.36100
O          5.79200        9.25000        3.02600
N          6.04700        8.03000        1.14900
H          5.83800        7.14900        0.71000
C          6.98700        8.92900        0.45700
H          7.02500        9.88400        0.98200
C          8.39000        8.30400        0.51300
H          9.10500        9.00300        0.07600
H          8.67400        8.17000        1.55800
C          8.50200        6.97200       -0.20900
C          8.77400        6.94000       -1.59100
H          8.93200        7.86400       -2.13400
C          8.83900        5.70800       -2.26900
H          9.04700        5.67300       -3.32800
C          8.63000        4.50300       -1.56700
O          8.68500        3.32000       -2.23100
H          8.64700        2.56900       -1.63800
C          8.36300        4.53300       -0.18100
H          8.21000        3.61200        0.36000
C          8.30200        5.76700        0.49500
H          8.10600        5.79100        1.55900
C          6.58900        9.25400       -0.99600
O          7.22300       10.09100       -1.63500
N          5.55000        8.60400       -1.53500
H          5.02200        7.98900       -0.93900
C          5.13200        8.71900       -2.94000
H          6.00100        8.56700       -3.58000
C          4.07500        7.63800       -3.25800
H          3.24100        7.74600       -2.56300
H          3.68100        7.85100       -4.25300
C          4.52000        6.15900       -3.26700
H          3.66800        5.57700       -3.61800
C          5.67700        5.90600       -4.23300
H          5.41200        6.26800       -5.22600
H          6.57700        6.41500       -3.89300
H          5.88000        4.83600       -4.29100
C          4.90000        5.60400       -1.89000
H          5.85700        6.01000       -1.56400
H          4.11900        5.83600       -1.16800
H          5.00100        4.52100       -1.96100
C          4.58900       10.11900       -3.28900
O          4.58500       10.50700       -4.45200
N          4.16300       10.88300       -2.28200
H          4.16500       10.46800       -1.35800
C          3.76300       12.28800       -2.37800
H          3.15300       12.39400       -3.27600
C          2.87400       12.63900       -1.16500
H          2.37000       13.57800       -1.39700
H          2.09500       11.88200       -1.05600
C          3.58900       12.83100        0.19100
H          4.40600       13.54400        0.07600
H          2.87600       13.27900        0.88300
C          4.12800       11.56500        0.86100
O          3.88700       10.43500        0.46100
N          4.89200       11.71100        1.91900
H          5.21400       10.86100        2.37800
H          5.11000       12.61900        2.28000
C          4.94500       13.27100       -2.53900
O          4.73800       14.47600       -2.61100
N          6.19100       12.81200       -2.55300
H          6.37600       11.82100       -2.47300
H          6.94100       13.47200       -2.66800
