68
0 1
H          3.50300       10.67900       -8.67900
C          2.81600       10.27000       -7.93900
H          2.41800        9.32200       -8.29400
H          2.00400       10.97300       -7.76700
C          3.56600       10.04700       -6.64700
O          4.75600       10.32200       -6.56800
N          2.86900        9.54000       -5.63200
H          1.89700        9.30700       -5.77600
C          3.43000        9.24700       -4.31100
H          4.47400        8.95400       -4.43300
C          3.38400       10.51400       -3.44300
H          3.85000       11.33400       -3.99200
H          2.34200       10.78900       -3.27300
C          4.09300       10.38500       -2.10800
C          5.49400       10.51300       -2.05000
H          6.05700       10.70200       -2.95600
C          6.16000       10.43100       -0.81200
H          7.23200       10.54700       -0.75500
C          5.42600       10.21800        0.37300
O          6.07800       10.13600        1.56100
H          5.59500        9.58600        2.19900
C          4.02400       10.06600        0.31200
H          3.46300        9.91300        1.22200
C          3.35900       10.15000       -0.92700
H          2.28100       10.05800       -0.96900
C          2.68400        8.08200       -3.64400
O          1.51200        7.85200       -3.93100
N          3.36200        7.35500       -2.75200
H          4.32500        7.60100       -2.59000
C          2.83400        6.14500       -2.09800
H          1.74500        6.14000       -2.16800
C          3.37100        4.91300       -2.85200
H          2.83000        4.03200       -2.50300
H          3.16100        5.01900       -3.91700
C          4.86100        4.68400       -2.64800
C          5.30500        3.88500       -1.57400
H          4.58600        3.37400       -0.94600
C          6.67900        3.79100       -1.28300
H          7.02300        3.20900       -0.44100
C          7.61500        4.48900       -2.07500
O          8.92900        4.48200       -1.73600
H          9.03400        4.44800       -0.77000
C          7.17500        5.24800       -3.17900
H          7.90400        5.76700       -3.78300
C          5.79900        5.34500       -3.46600
H          5.46500        5.94100       -4.30400
C          3.19100        6.03700       -0.60300
O          2.50800        5.33900        0.14400
N          4.27200        6.68600       -0.15300
H          4.77600        7.27400       -0.79400
C          4.89700        6.42800        1.14800
H          4.74000        5.37400        1.38000
C          6.41800        6.62800        1.00500
H          6.73600        6.09900        0.10900
H          6.65500        7.67900        0.85400
C          7.22100        6.08900        2.19900
H          7.22800        6.82900        2.99900
H          6.75000        5.18100        2.57700
C          8.65000        5.72600        1.80100
O          8.89600        4.86100        0.97400
N          9.65100        6.35900        2.37100
H         10.57300        6.08800        2.07500
H          9.48400        7.08700        3.04100
C          4.23500        7.22700        2.28800
O          4.83100        8.11000        2.89700
N          2.96100        6.97300        2.55200
H          2.50100        7.48800        3.28400
H          2.47300        6.27700        2.00100
