63
0 1
H         11.19200        7.32400        9.23500
C         10.43800        6.96300        8.53900
H          9.52200        6.73400        9.08200
H         10.79500        6.06700        8.03400
C         10.14400        8.03300        7.51500
O          9.01500        8.49300        7.40400
N         11.16200        8.43700        6.75700
H         12.06200        8.00400        6.88200
C         11.00800        9.43400        5.69400
H         10.46500       10.28800        6.10300
C         12.38800        9.93700        5.25000
H         12.89200       10.39300        6.10300
H         12.99200        9.08800        4.92400
C         12.31700       10.95700        4.12900
C         11.88600       12.27000        4.40200
H         11.64300       12.56400        5.41300
C         11.76300       13.20300        3.35400
H         11.42200       14.21000        3.54600
C         12.07100       12.82400        2.03200
O         11.88900       13.70400        1.01500
H         11.64500       13.24100        0.19900
C         12.52200       11.51400        1.76300
H         12.77100       11.23400        0.74900
C         12.64000       10.58100        2.81000
H         12.97300        9.57300        2.60100
C         10.18500        8.87400        4.51900
O         10.68900        8.10900        3.69700
N          8.91000        9.26400        4.43300
H          8.55000        9.81900        5.19600
C          7.94000        8.79000        3.43600
H          8.11100        7.71900        3.31200
C          6.52200        8.96000        4.01900
H          6.53400        8.63700        5.06200
H          6.24400       10.01500        3.99500
C          5.45100        8.12800        3.28800
H          5.37200        8.43500        2.24700
H          5.73600        7.07600        3.31100
C          4.06800        8.26100        3.92100
O          3.77600        8.97200        4.87000
O          3.11200        7.50300        3.35100
H          2.31600        7.70000        3.84700
C          8.13400        9.42600        2.03600
O          7.19600        9.94800        1.44200
N          9.36800        9.39600        1.51900
H         10.06800        8.95100        2.10300
C          9.83700        9.89400        0.20800
H         10.90800        9.70000        0.17000
C          9.22000        9.08000       -0.94300
H          8.15200        9.29500       -0.99500
H          9.66800        9.40800       -1.88200
C          9.40000        7.55800       -0.83300
H          8.95200        7.19700        0.09300
H          8.83600        7.11300       -1.65300
S         11.10200        6.93300       -0.96200
C         11.62100        6.89000        0.77700
H         10.89700        6.32500        1.36600
H         12.59400        6.40500        0.84900
H         11.70300        7.90000        1.17300
C          9.71000       11.40900       -0.05500
O         10.56300       11.98500       -0.72400
N          8.72000       12.10500        0.48300
H          8.67400       13.09600        0.31400
H          7.99400       11.61900        0.99300
