65
0 1
H          1.84800        4.73200       -4.69800
C          1.36400        5.70600       -4.65000
H          0.61400        5.70700       -3.86200
H          0.89200        5.92800       -5.60600
C          2.39900        6.76400       -4.35000
O          2.57000        7.68900       -5.13500
N          3.06000        6.62800       -3.20300
H          2.81300        5.85000       -2.60700
C          4.11700        7.50300       -2.67500
H          4.86900        7.66400       -3.44800
C          3.51000        8.86400       -2.26700
H          4.20900        9.40900       -1.63500
H          3.38800        9.46000       -3.17200
C          2.17100        8.81000       -1.54800
C          2.10100        8.42200       -0.19500
H          2.99900        8.15100        0.34200
C          0.85600        8.36900        0.46100
H          0.79100        8.06600        1.49500
C         -0.32400        8.70700       -0.23400
O         -1.52100        8.65500        0.40500
H         -2.24400        8.92000       -0.16400
C         -0.25600        9.09700       -1.58900
H         -1.15600        9.35700       -2.12500
C          0.99100        9.14800       -2.24100
H          1.04400        9.44300       -3.28100
C          4.79200        6.81900       -1.46100
O          4.18700        5.91300       -0.88200
N          5.99300        7.24600       -1.01400
C          6.58700        6.73200        0.21400
H          6.67200        5.64500        0.18200
H          5.97200        7.03100        1.06400
C          7.97200        7.36900        0.32800
H          8.71400        6.72300       -0.14200
H          8.23900        7.57000        1.36600
C          7.81900        8.65800       -0.47900
H          8.78200        9.03000       -0.83400
H          7.32300        9.41400        0.13200
C          6.89100        8.23300       -1.62200
H          6.34000        9.10500       -1.97000
C          7.70400        7.66700       -2.79900
O          7.88700        6.46100       -2.93500
N          8.23400        8.55900       -3.63600
H          8.03500        9.53400       -3.48000
C          8.99000        8.23100       -4.85400
H          8.55600        7.32400       -5.27600
C          8.77600        9.35500       -5.88500
H          9.31400       10.24700       -5.56200
H          9.18400        9.04300       -6.84700
C          7.30400        9.68400       -6.05200
C          6.44000        8.70500       -6.57800
H          6.83900        7.77700       -6.96200
C          5.05000        8.90900       -6.55600
H          4.38100        8.14700       -6.92900
C          4.52000       10.09700       -6.01300
O          3.17700       10.23900       -5.89300
H          2.77500        9.36300       -5.76900
C          5.38600       11.09900       -5.52900
H          4.96500       12.00700       -5.12300
C          6.78000       10.89200       -5.54700
H          7.44100       11.64800       -5.14800
C         10.46900        7.89900       -4.57900
O         11.38100        8.49900       -5.13500
N         10.73300        6.96200       -3.67900
H          9.96700        6.47100       -3.23800
H         11.69400        6.73700       -3.48500
