66
0 1
H          2.59400        7.17300       -0.08900
C          2.78700        6.26200        0.47800
H          2.58000        5.39500       -0.14700
H          2.15300        6.24300        1.36200
C          4.23700        6.24400        0.89800
O          4.98500        7.16300        0.58500
N          4.64900        5.19300        1.60300
H          3.98500        4.46600        1.81600
C          6.03500        5.01600        2.05000
H          6.40900        5.99000        2.37000
C          6.06900        4.09800        3.28300
H          5.35300        4.47000        4.01700
H          5.74900        3.09500        2.99400
C          7.42900        4.02600        3.95600
C          8.20500        2.85300        3.87300
H          7.83900        1.99900        3.31900
C          9.46300        2.79300        4.50300
H         10.07000        1.90200        4.43900
C          9.95500        3.91200        5.20700
O         11.19100        3.86800        5.76500
H         11.54700        4.74600        5.91700
C          9.18300        5.09200        5.28000
H          9.56300        5.95000        5.81300
C          7.91900        5.14300        4.66200
H          7.32400        6.04300        4.73200
C          6.94800        4.54600        0.90000
O          7.36900        3.39200        0.84000
N          7.25600        5.45400       -0.03300
H          6.80200        6.35900        0.04300
C          8.05800        5.18200       -1.24100
H          7.61900        4.32300       -1.74900
C          7.98900        6.39600       -2.19200
H          8.43500        7.25400       -1.68800
H          8.60000        6.17700       -3.07000
C          6.58000        6.78800       -2.68000
H          5.96600        7.07200       -1.82900
C          6.68100        7.99500       -3.61400
H          7.27300        7.74200       -4.49400
H          5.68300        8.30200       -3.92800
H          7.15100        8.82700       -3.09000
C          5.87900        5.65800       -3.43700
H          4.92500        6.01200       -3.82600
H          6.50300        5.31900       -4.26500
H          5.68400        4.82300       -2.76500
C          9.52600        4.78300       -0.97200
O         10.24400        4.44100       -1.90500
N          9.97200        4.79700        0.28800
H          9.31800        5.05800        1.00600
C         11.26000        4.23200        0.71700
H         12.03700        4.52900        0.01100
C         11.61600        4.78600        2.10400
H         10.80900        4.53500        2.78700
H         12.53100        4.31100        2.46200
C         11.81800        6.30400        2.12900
H         12.68900        6.55000        1.51900
H         10.94600        6.79400        1.69600
S         12.06300        6.96500        3.80000
C         12.34700        8.70900        3.39500
H         12.51700        9.27100        4.31300
H         13.22200        8.79700        2.75100
H         11.47500        9.11300        2.88100
C         11.25900        2.69000        0.76500
O         12.31200        2.07600        0.88400
N         10.10800        2.03100        0.69700
H         10.13500        1.02600        0.71800
H          9.23400        2.53200        0.62000
