64
0 1
H         14.66900       11.73400        1.69300
C         14.79800       11.96700        2.74900
H         13.91600       12.48000        3.12600
H         15.67600       12.59900        2.87700
C         15.00100       10.68200        3.51500
O         16.02800       10.50400        4.16100
N         14.01700        9.78900        3.43600
H         13.20400       10.03600        2.89100
C         14.03900        8.45800        4.06800
H         15.03400        8.26500        4.47100
C         13.04400        8.45100        5.24000
H         13.12400        7.49500        5.76000
H         13.33200        9.22600        5.95100
C         11.59600        8.66300        4.82800
C         11.04100        9.95800        4.83800
H         11.63700       10.79700        5.17000
C          9.71200       10.16000        4.41600
H          9.27700       11.14800        4.42100
C          8.93700        9.06500        3.98100
O          7.66800        9.26900        3.53900
H          7.15200        8.46200        3.57600
C          9.48800        7.76500        3.98200
H          8.90100        6.92500        3.64400
C         10.81500        7.56800        4.40800
H         11.24300        6.57300        4.40100
C         13.73900        7.31600        3.08000
O         13.87800        6.14100        3.41600
N         13.31400        7.65000        1.86100
H         13.23000        8.63500        1.65100
C         12.81500        6.73300        0.83000
H         12.02700        6.11500        1.26200
C         12.21100        7.58700       -0.29900
H         13.02000        8.06300       -0.85500
H         11.66700        6.93800       -0.98600
C         11.28500        8.67500        0.20100
N         11.69700        9.87400        0.79900
C         10.57100       10.49700        1.17600
H         10.53900       11.44900        1.69000
N          9.49400        9.75600        0.86600
H          8.54200        9.98100        1.12400
C          9.92500        8.60000        0.25300
H          9.31800        7.77300       -0.08800
C         13.88500        5.77500        0.29000
O         13.55500        4.71700       -0.23400
N         15.16100        6.12900        0.45800
H         15.33100        7.04500        0.85700
C         16.33200        5.29200        0.18900
H         16.18100        4.81400       -0.77900
C         17.57900        6.19800        0.07800
H         18.37500        5.59400       -0.36000
H         17.37600        7.00800       -0.62500
C         18.13100        6.79200        1.39500
H         18.24300        6.00200        2.13700
H         19.12900        7.17800        1.19100
C         17.32400        7.93900        2.00800
O         16.35600        8.44500        1.46200
N         17.69200        8.39400        3.18400
H         18.48300        8.01300        3.66600
H         17.16200        9.18000        3.55700
C         16.54200        4.15200        1.21100
O         17.46000        3.35400        1.06300
N         15.75300        4.06100        2.27500
H         15.01000        4.73100        2.42300
H         15.90600        3.30600        2.92000
