64
0 1
H          7.35000        3.38100        1.49800
C          6.49800        3.09200        2.11100
H          6.84400        2.56000        2.99600
H          5.83200        2.44700        1.54000
C          5.74700        4.33200        2.53400
O          4.60000        4.52100        2.14400
N          6.39500        5.18200        3.32900
H          7.33600        4.94500        3.60000
C          5.77300        6.34000        3.99000
H          4.98200        5.96900        4.64400
C          6.82600        7.04100        4.86100
H          7.53600        7.55200        4.21000
H          6.33000        7.80300        5.46400
C          7.58800        6.11200        5.79000
C          6.93700        5.54400        6.90300
H          5.90300        5.78700        7.10800
C          7.63100        4.66000        7.75100
H          7.14300        4.22000        8.60700
C          8.98000        4.34300        7.48900
O          9.64300        3.49100        8.31300
H         10.56600        3.40100        8.07600
C          9.63400        4.91100        6.37400
H         10.66700        4.67200        6.17400
C          8.93600        5.79400        5.52600
H          9.44100        6.23400        4.67700
C          5.12200        7.35600        3.03500
O          4.16900        8.03000        3.41900
N          5.58000        7.43900        1.78100
H          6.32900        6.81300        1.50500
C          4.98700        8.29300        0.74100
H          4.92700        9.30400        1.14600
C          5.91800        8.34200       -0.49100
H          5.65900        9.23000       -1.06900
H          6.94900        8.46600       -0.15500
C          5.83900        7.13200       -1.44600
H          4.85200        7.10700       -1.90800
H          6.56800        7.26700       -2.24500
C          6.11700        5.79300       -0.77100
O          7.00500        5.65300        0.05500
N          5.34600        4.76900       -1.05900
H          5.49900        3.92800       -0.53200
H          4.58400        4.86200       -1.70800
C          3.54900        7.89200        0.35400
O          2.87000        8.65700       -0.32200
N          3.07500        6.70900        0.76600
H          3.68900        6.09500        1.29200
C          1.68400        6.28100        0.59100
H          1.39100        6.51800       -0.43300
C          1.63300        4.75100        0.77500
H          2.36700        4.29900        0.10500
H          1.92300        4.51000        1.79900
C          0.27400        4.08600        0.49900
H          0.39200        3.00500        0.58200
H         -0.44900        4.39300        1.25400
C         -0.27000        4.40400       -0.89000
O          0.03200        3.74400       -1.86800
N         -1.06300        5.44200       -1.03400
H         -1.23800        6.05100       -0.24000
H         -1.39600        5.63400       -1.95900
C          0.69900        7.02200        1.52400
O         -0.51000        6.98700        1.30500
N          1.16800        7.70500        2.56300
H          0.51400        8.20000        3.14600
H          2.16300        7.75500        2.73700
