64
0 1
H          8.53300        8.83600       -6.30200
C          8.70900        9.90200       -6.16800
H          8.56200       10.42300       -7.11200
H          9.72700       10.06500       -5.81600
C          7.74000       10.44500       -5.14400
O          8.16100       10.96100       -4.11400
N          6.44500       10.30700       -5.42100
H          6.18400        9.81100       -6.25900
C          5.35200       10.76800       -4.55700
H          5.77800       11.19900       -3.65000
C          4.57500       11.88000       -5.27700
H          5.27000       12.46600       -5.88100
H          3.85000       11.43500       -5.96000
C          3.87500       12.83700       -4.33500
C          4.59000       13.92900       -3.80300
H          5.62700       14.08100       -4.07500
C          3.96300       14.82000       -2.91200
H          4.50600       15.65000       -2.48300
C          2.61700       14.61300       -2.54600
O          2.06300       15.37000       -1.56900
H          1.65800       14.79200       -0.90500
C          1.90100       13.52600       -3.08700
H          0.87300       13.37500       -2.79600
C          2.52700       12.63800       -3.98200
H          1.96800       11.80600       -4.38900
C          4.46400        9.58300       -4.14400
O          4.21200        8.69100       -4.95100
N          4.04500        9.53400       -2.87600
H          4.31000       10.30600       -2.27600
C          3.62500        8.28400       -2.21100
H          3.11900        7.66300       -2.95200
C          4.87800        7.50800       -1.73600
H          4.55600        6.53100       -1.37200
H          5.52700        7.32400       -2.59400
C          5.70500        8.18300       -0.62100
H          5.06800        8.40400        0.23500
H          6.47500        7.48600       -0.29000
C          6.38200        9.46600       -1.09000
O          5.88000       10.56300       -0.88900
N          7.47000        9.37100       -1.82000
H          7.87800        8.47800       -2.02000
H          7.81900       10.21500       -2.26800
C          2.60300        8.48300       -1.07100
O          2.45100        7.61800       -0.21200
N          1.92300        9.62900       -1.02900
H          2.03100       10.28100       -1.79500
C          0.91600        9.97800       -0.01700
H          0.34200        9.08200        0.22000
C          1.59200       10.44600        1.29900
H          0.89700       11.05900        1.87200
H          1.78300        9.55500        1.89900
C          2.93200       11.19800        1.18800
H          3.22500       11.54700        2.17800
H          3.69800       10.49800        0.85500
C          2.90600       12.39700        0.24900
O          1.95800       13.16700        0.19800
N          3.94500       12.59000       -0.53200
H          4.74400       11.96200       -0.50400
H          3.90800       13.36900       -1.16800
C         -0.09900       10.98400       -0.59600
O         -0.03600       11.33700       -1.76800
N         -1.08800       11.41400        0.17800
H         -1.14300       11.12700        1.14000
H         -1.74300       12.07000       -0.21500
