67
0 1
H         12.31300        7.00400        2.72900
C         12.61300        8.04600        2.63200
H         13.69600        8.12400        2.71900
H         12.13900        8.64300        3.40700
C         12.19300        8.56200        1.27600
O         13.02900        8.99300        0.49300
N         10.89300        8.51300        0.99900
H         10.26400        8.14100        1.69500
C         10.29400        8.93200       -0.27200
H         10.86400        9.77500       -0.66700
C         10.37400        7.78100       -1.29200
H          9.88100        8.08800       -2.21500
H         11.42300        7.60800       -1.53600
C          9.76300        6.47100       -0.82100
C          8.38000        6.23900       -0.96500
H          7.75200        6.98400       -1.43200
C          7.80900        5.04500       -0.48600
H          6.74700        4.88200       -0.58300
C          8.62500        4.07200        0.12900
O          8.08100        2.92000        0.60100
H          7.12900        2.91100        0.50400
C         10.01100        4.29500        0.25800
H         10.62600        3.54100        0.72600
C         10.57800        5.49400       -0.21600
H         11.64000        5.66800       -0.11000
C          8.84400        9.39700       -0.07500
O          8.16900        8.98200        0.87100
N          8.35400       10.25000       -0.98100
H          8.94300       10.52600       -1.75100
C          6.95200       10.67500       -1.00400
H          6.63300       10.84300        0.02700
C          6.80000       12.00800       -1.75200
H          7.38700       12.77400       -1.24300
H          7.19200       11.89900       -2.76400
C          5.35300       12.45800       -1.82000
C          4.73600       12.99800       -0.67400
H          5.31400       13.17600        0.22300
C          3.35600       13.27800       -0.68400
H          2.86800       13.67900        0.19200
C          2.58800       13.00800       -1.83500
O          1.25000       13.23200       -1.82000
H          0.80000       12.74800       -2.51400
C          3.20900       12.48000       -2.98800
H          2.62000       12.27100       -3.86800
C          4.59200       12.21200       -2.98000
H          5.06100       11.78300       -3.85500
C          6.02800        9.59700       -1.59800
O          6.38700        8.89100       -2.54000
N          4.81400        9.49600       -1.05900
H          4.59600       10.12900       -0.29900
C          3.80900        8.48000       -1.37800
H          4.32200        7.54500       -1.60800
C          2.92100        8.23500       -0.13600
H          2.54400        9.19100        0.23200
H          2.06300        7.63000       -0.43100
C          3.63700        7.49100        1.01400
H          2.96000        7.41100        1.86400
H          3.87200        6.48000        0.67900
C          4.92300        8.17000        1.48500
O          5.00600        9.34600        1.81600
O          6.02400        7.39700        1.40500
H          6.79500        7.98200        1.50400
C          3.01400        8.86300       -2.64400
O          1.81400        9.11000       -2.61400
N          3.68700        8.94900       -3.78400
H          4.68500        8.78100       -3.78200
H          3.18900        9.19600       -4.62200
