61
0 1
H          4.61700        4.94200       -7.78100
C          3.75700        4.52000       -7.26400
H          3.68300        3.45400       -7.46700
H          2.85100        5.02200       -7.60000
C          3.91700        4.74200       -5.77900
O          3.13200        5.46600       -5.17900
N          4.93700        4.12000       -5.19100
H          5.53700        3.54200       -5.75800
C          5.26900        4.21200       -3.76500
H          5.01100        5.21000       -3.41400
C          4.41300        3.19400       -2.99100
H          3.36000        3.37700       -3.21200
H          4.65000        2.18900       -3.34400
C          4.59900        3.24400       -1.48800
C          5.56900        2.43200       -0.86600
H          6.16000        1.74300       -1.45600
C          5.78200        2.52900        0.52200
H          6.52500        1.91700        1.01000
C          5.02000        3.43200        1.29200
O          5.23600        3.52600        2.62900
H          4.62200        4.12800        3.05100
C          4.04100        4.23800        0.67000
H          3.45800        4.93300        1.25500
C          3.83200        4.14100       -0.71900
H          3.09300        4.76800       -1.20100
C          6.77600        3.94900       -3.54100
O          7.33900        3.13400       -4.27800
N          7.44900        4.58900       -2.55800
C          8.81300        4.24200       -2.18100
H          9.44800        4.08100       -3.05300
H          8.79300        3.33900       -1.56900
C          9.33100        5.41300       -1.35100
H          9.74100        6.18100       -2.00900
H         10.07600        5.09300       -0.62200
C          8.05800        5.92500       -0.67900
H          8.15100        6.97000       -0.37700
H          7.83100        5.30200        0.18700
C          6.97800        5.72100       -1.74700
H          6.04400        5.47300       -1.24700
C          6.75000        7.00000       -2.56900
O          5.84900        7.77200       -2.25800
N          7.49300        7.18900       -3.66400
H          8.25400        6.53900       -3.83500
C          7.17800        8.16100       -4.71900
H          6.89300        9.09400       -4.23000
C          8.44400        8.47700       -5.55500
H          8.23300        9.35600       -6.16400
H          9.23500        8.76000       -4.85800
C          9.01200        7.38900       -6.49200
H          8.41000        7.33700       -7.39800
H         10.01800        7.67700       -6.79600
C          9.08200        6.01300       -5.84500
O          9.80200        5.79300       -4.88600
N          8.26100        5.07600       -6.25800
H          8.26300        4.20200       -5.74600
H          7.54300        5.32200       -6.92100
C          5.95100        7.69200       -5.53100
O          6.05600        7.05500       -6.57700
N          4.75800        7.93800       -5.01200
H          4.69500        8.35800       -4.09500
H          3.94500        7.52100       -5.44300
