63
0 1
H          6.45400        3.10100        5.76300
C          5.45400        3.52800        5.72300
H          5.15000        3.84300        6.72000
H          4.74900        2.79200        5.34100
C          5.45800        4.73200        4.81000
O          5.14100        5.83400        5.24200
N          5.82200        4.52200        3.54600
H          6.02700        3.58200        3.25200
C          5.75500        5.57100        2.52600
H          6.22000        6.47000        2.93300
C          6.54300        5.15900        1.27200
H          7.57600        4.95300        1.55600
H          6.11900        4.23600        0.87300
C          6.54300        6.21800        0.18000
C          5.66200        6.11900       -0.91900
H          4.99500        5.27200       -1.00000
C          5.64800        7.12300       -1.91100
H          4.98600        7.04600       -2.76100
C          6.51500        8.23200       -1.80200
O          6.53300        9.20500       -2.75100
H          5.89700        9.07100       -3.47000
C          7.38800        8.33100       -0.70000
H          8.04100        9.18700       -0.62600
C          7.40200        7.32800        0.28900
H          8.07400        7.41600        1.13100
C          4.30500        5.91700        2.16000
O          3.46000        5.03600        2.00300
N          4.04400        7.20300        1.93400
H          4.79900        7.87100        2.02600
C          2.81900        7.71100        1.31900
H          2.38700        6.92300        0.70200
C          1.79400        8.09600        2.39600
H          0.83600        8.29000        1.91400
H          1.65800        7.26000        3.08300
C          2.18000        9.32400        3.17800
N          1.91600       10.63800        2.78600
C          2.49900       11.41300        3.71200
H          2.48700       12.49600        3.70000
N          3.10800       10.66100        4.64600
H          3.63500       11.01300        5.43200
C          2.92300        9.33600        4.32100
H          3.31500        8.46800        4.83800
C          3.17800        8.88500        0.40300
O          4.22100        9.51500        0.56500
N          2.33200        9.16500       -0.58800
H          1.47200        8.64500       -0.65000
C          2.68400       10.06900       -1.68700
H          3.74100        9.88900       -1.89200
C          1.88300        9.64400       -2.93700
H          1.98100        8.56200       -3.04600
H          0.82600        9.86800       -2.78300
C          2.33700       10.27500       -4.26500
H          1.90300        9.71200       -5.09100
H          1.96400       11.29600       -4.34200
C          3.85500       10.26300       -4.41600
O          4.50200        9.24700       -4.64800
O          4.45600       11.45600       -4.19000
H          3.86300       12.06500       -3.72700
C          2.58300       11.57700       -1.35300
O          2.74500       12.41400       -2.23900
N          2.31100       11.96500       -0.11300
H          2.24200       11.28500        0.63300
H          2.26600       12.95000        0.08300
