63
0 1
H          3.97600        6.55800       -0.14200
C          4.52600        7.44600        0.16600
H          5.58400        7.21200        0.26600
H          4.13600        7.80200        1.11800
C          4.34600        8.52600       -0.87400
O          3.86900        9.61200       -0.56100
N          4.72500        8.22000       -2.11300
H          5.10600        7.29800       -2.27400
C          4.55900        9.09800       -3.28500
H          4.19400       10.07400       -2.96200
C          5.93300        9.30200       -3.94400
H          5.82400       10.01000       -4.76700
H          6.60600        9.75900       -3.21700
C          6.56600        8.02600       -4.47600
C          7.47000        7.29800       -3.67600
H          7.73900        7.66500       -2.69500
C          8.02400        6.09500       -4.15500
H          8.71900        5.53100       -3.55200
C          7.67500        5.61800       -5.43600
O          8.18600        4.44000       -5.88000
H          8.14400        4.37800       -6.83600
C          6.78100        6.35300       -6.24300
H          6.50700        5.99000       -7.22100
C          6.23100        7.55700       -5.76200
H          5.53900        8.11900       -6.37700
C          3.53700        8.55400       -4.30100
O          3.16000        9.24700       -5.24300
N          3.09800        7.30500       -4.13100
H          3.45200        6.79500       -3.33200
C          2.30500        6.52400       -5.08800
H          2.82000        6.52200       -6.04900
C          2.23500        5.08000       -4.56500
H          1.58100        5.04900       -3.69200
H          1.79800        4.44200       -5.33500
C          3.58100        4.52200       -4.15900
N          4.27300        4.85100       -2.98600
C          5.44700        4.20800       -3.06300
H          6.22900        4.26600       -2.31800
N          5.53300        3.51700       -4.21300
H          6.35400        3.01800       -4.53000
C          4.36600        3.70600       -4.92000
H          4.12200        3.31800       -5.89900
C          0.90000        7.08900       -5.34300
O          0.30800        6.81500       -6.38000
N          0.39200        7.90600       -4.41900
H          0.93700        8.02700       -3.57400
C         -0.84200        8.68600       -4.54400
H         -1.60900        8.02400       -4.94900
C         -1.30300        9.13400       -3.13900
H         -2.32000        9.51700       -3.24200
H         -1.35900        8.26500       -2.48200
C         -0.46700       10.23900       -2.45200
H         -0.28800       11.06100       -3.14500
H         -1.05400       10.64200       -1.62700
C          0.87100        9.78200       -1.86700
O          1.29600        8.63300       -1.87400
O          1.60600       10.77200       -1.32400
H          2.42600       10.36700       -0.98100
C         -0.74100        9.88200       -5.51700
O         -1.72800       10.56700       -5.75100
N          0.42700       10.19400       -6.06900
H          1.25600        9.65400       -5.86100
H          0.46200       10.97600       -6.70000
