71
0 1
H          4.71600       14.97000        2.78000
C          4.48300       14.06000        3.32900
H          3.40600       13.97800        3.46600
H          4.97600       14.07300        4.29900
C          4.96800       12.86600        2.54100
O          4.16600       12.04100        2.11900
N          6.28100       12.78200        2.34000
H          6.87900       13.48700        2.74200
C          6.94200       11.68100        1.63700
H          6.38900       10.76100        1.83000
C          6.92600       11.95000        0.12500
H          5.90600       12.19000       -0.18000
H          7.54300       12.82400       -0.09000
C          7.40800       10.78200       -0.71500
C          8.77300       10.65200       -1.04300
H          9.48400       11.39200       -0.70100
C          9.20800        9.56500       -1.82600
H         10.24900        9.46700       -2.09300
C          8.27600        8.61400       -2.29500
O          8.68900        7.54900       -3.02900
H          9.54100        7.20800       -2.71300
C          6.91200        8.74800       -1.96600
H          6.20800        8.01100       -2.32300
C          6.48100        9.82600       -1.17100
H          5.43300        9.92500       -0.91700
C          8.37700       11.50500        2.15300
O          9.05500       12.49200        2.43700
N          8.84200       10.25600        2.26300
H          8.21900        9.51000        1.99400
C         10.13200        9.91800        2.89700
H         10.77900       10.79600        2.88800
C          9.88900        9.52700        4.36600
H          9.37300        8.56500        4.38900
H         10.85600        9.38600        4.85100
C          9.08300       10.49300        5.18300
C          9.59000       11.48400        5.95000
H         10.64700       11.68500        6.07800
N          8.56000       12.21300        6.51200
H          8.70700       13.01300        7.11000
C          7.32800       11.74000        6.11500
C          6.01300       12.15000        6.38300
H          5.82500       12.99600        7.02500
C          4.94700       11.44500        5.79900
H          3.92500       11.75000        5.98400
C          5.20800       10.34300        4.96500
H          4.38200        9.81500        4.50600
C          6.53200        9.93500        4.71100
H          6.71400        9.08700        4.07000
C          7.62800       10.62700        5.27300
C         10.90000        8.79400        2.18800
O         12.12700        8.75400        2.22600
N         10.18700        7.88000        1.52900
H          9.18600        7.99500        1.51300
C         10.71200        6.70600        0.82800
H         11.55700        6.32400        1.40300
C          9.64000        5.59300        0.81900
H         10.01400        4.76700        0.21200
H          9.52700        5.21500        1.83400
C          8.24900        5.98800        0.28900
H          8.37400        6.47100       -0.67700
H          7.68600        5.07100        0.11100
S          7.21800        7.06600        1.34200
C          6.82000        5.94300        2.70800
H          7.72900        5.66300        3.23900
H          6.14200        6.44200        3.40100
H          6.33500        5.04800        2.31700
C         11.28000        7.07000       -0.55900
O         10.82000        6.60800       -1.59900
N         12.27100        7.94800       -0.60400
H         12.66400        8.19700       -1.49600
H         12.61900        8.34400        0.26100
