68
0 1
H         11.76400       13.51600        2.75100
C         12.81100       13.34400        2.50900
H         13.36700       14.27800        2.56000
H         12.88500       12.92800        1.50500
C         13.39100       12.35600        3.49200
O         13.78300       11.25900        3.10500
N         13.44600       12.74000        4.76800
H         13.09200       13.64900        5.01700
C         13.87200       11.84300        5.84600
H         14.68600       11.22600        5.46600
C         14.44700       12.63900        7.02900
H         15.18300       13.35000        6.65300
H         13.65200       13.20800        7.51300
C         15.12600       11.73900        8.04800
C         14.40700       11.24100        9.15300
H         13.38000       11.54300        9.31000
C         15.00600       10.31400       10.02600
H         14.44800        9.90600       10.85500
C         16.33500        9.89500        9.80700
O         16.87700        8.92500       10.58500
H         16.21300        8.24700       10.78300
C         17.06900       10.42400        8.72600
H         18.08100       10.08800        8.56200
C         16.46100       11.33700        7.84300
H         17.01100       11.70400        6.98700
C         12.73100       10.89200        6.25000
O         12.00200       11.12800        7.21300
N         12.54900        9.81800        5.48300
H         13.13800        9.73300        4.66300
C         11.59700        8.74100        5.78900
H         10.69900        9.18300        6.22300
C         11.19300        8.04300        4.48200
H         12.07800        7.59500        4.02800
H         10.49900        7.23400        4.71400
C         10.52500        8.96800        3.47900
C         11.25600        9.49300        2.39500
H         12.29700        9.23300        2.26500
C         10.64100       10.38100        1.49200
H         11.19900       10.79500        0.66600
C          9.29100       10.74300        1.66700
O          8.70600       11.60700        0.79700
H          7.77700       11.73500        0.99000
C          8.55300       10.21200        2.74800
H          7.52000       10.48900        2.88800
C          9.17300        9.32700        3.65200
H          8.61400        8.92800        4.48700
C         12.13400        7.72800        6.82000
O         11.39400        6.86700        7.29100
N         13.41900        7.81100        7.17600
H         13.96300        8.55900        6.75800
C         14.15100        6.87600        8.03700
H         13.78400        5.87200        7.82000
C         15.65300        6.90800        7.67300
H         16.07300        7.88000        7.92300
H         16.15900        6.16300        8.29000
C         15.97300        6.57900        6.19900
H         17.01900        6.27600        6.14200
H         15.36800        5.73000        5.87900
C         15.78200        7.73400        5.21000
O         15.44700        8.85700        5.54400
N         15.96300        7.50500        3.92900
H         16.24300        6.60100        3.59800
H         15.83400        8.29700        3.32200
C         13.88800        7.10700        9.54400
O         14.79600        7.09300       10.37300
N         12.64700        7.36200        9.93300
H         11.90400        7.35100        9.24700
H         12.46500        7.52400       10.90900
