68
0 1
H         13.59000       10.72400        0.24200
C         13.68600       11.80600        0.31000
H         14.10300       12.19300       -0.61900
H         14.33900       12.06900        1.14000
C         12.32200       12.41600        0.53000
O         11.86600       13.21500       -0.28300
N         11.67700       12.05200        1.63700
H         12.13900       11.42800        2.28000
C         10.34700       12.53900        2.01300
H         10.04400       13.30900        1.30300
C          9.31500       11.40900        1.90800
H          9.35000       10.98400        0.90300
H          9.57100       10.61900        2.61600
C          7.90500       11.89600        2.18100
C          7.31500       11.71600        3.44800
H          7.84000       11.17200        4.22200
C          6.04200       12.25900        3.71300
H          5.57800       12.13200        4.68000
C          5.36300       12.98800        2.71500
O          4.15800       13.55200        2.98000
H          4.03600       14.34900        2.44700
C          5.95700       13.16800        1.44900
H          5.43600       13.72900        0.68800
C          7.22200       12.61300        1.18200
H          7.67300       12.74200        0.20700
C         10.33400       13.18700        3.40400
O         11.02000       12.73600        4.32200
N          9.53500       14.24600        3.55800
H          8.94500       14.47300        2.77100
C          9.27700       14.93400        4.83600
H          9.04600       14.18100        5.59100
C         10.54000       15.72300        5.25300
H         11.44600       15.20100        4.94500
H         10.54100       16.68400        4.73600
C         10.62800       15.97500        6.76800
H         11.45100       16.66700        6.94300
H          9.71200       16.45400        7.11100
C         10.88500       14.73600        7.63500
O         10.84300       14.80500        8.84900
N         11.16300       13.56400        7.10300
H         11.20300       13.41300        6.10000
H         11.31900       12.82100        7.75800
C          8.07200       15.89200        4.75200
O          7.40900       16.16900        5.74500
N          7.79000       16.38900        3.54600
H          8.39700       16.12700        2.78800
C          6.68500       17.27500        3.16900
H          6.62300       18.08600        3.89600
C          7.02900       17.89800        1.79600
H          6.12400       18.29700        1.33500
H          7.68900       18.74900        1.97300
C          7.73600       16.96200        0.81900
C          9.14100       16.82100        0.86700
H          9.72400       17.43800        1.53800
C          9.78700       15.86700        0.05700
H         10.86000       15.74200        0.10300
C          9.03300       15.07600       -0.83500
O          9.63400       14.11000       -1.57500
H         10.51400       13.87400       -1.23400
C          7.63700       15.25700       -0.92300
H          7.07100       14.65400       -1.61700
C          6.98900       16.19000       -0.09000
H          5.91300       16.30000       -0.13500
C          5.32600       16.54200        3.21100
O          4.71300       16.22200        2.19500
N          4.84800       16.21800        4.40400
H          3.99200       15.69100        4.46000
H          5.40800       16.39800        5.22700
