68
0 1
H          2.46700        7.11400        2.88000
C          3.19900        6.30900        2.82600
H          3.35400        5.89600        3.82200
H          4.14100        6.68900        2.43600
C          2.67600        5.22100        1.92000
O          2.49000        4.09200        2.35600
N          2.48800        5.54800        0.64100
H          2.72200        6.48400        0.35500
C          1.91600        4.65400       -0.38300
H          0.91200        4.37200       -0.06100
C          1.78400        5.43000       -1.70400
H          1.36500        4.76800       -2.46300
H          1.06600        6.23800       -1.55900
C          3.08300        6.01800       -2.23100
C          3.98300        5.21000       -2.95300
H          3.74400        4.17200       -3.14800
C          5.19500        5.74800       -3.42400
H          5.88900        5.13300       -3.97600
C          5.51300        7.10000       -3.17500
O          6.69100        7.61500       -3.61900
H          6.63300        8.56600       -3.73700
C          4.60800        7.91400       -2.46000
H          4.85000        8.94800       -2.26600
C          3.39500        7.37300       -1.99200
H          2.69900        8.00300       -1.45500
C          2.68500        3.33300       -0.59300
O          2.15800        2.40400       -1.20000
N          3.89600        3.21300       -0.04200
H          4.28000        4.02900        0.40900
C          4.67800        1.97500        0.05400
H          4.89800        1.62900       -0.95700
C          6.00500        2.28900        0.76700
H          5.82600        2.32000        1.84300
H          6.70900        1.47800        0.57700
C          6.63500        3.60500        0.34300
C          7.19300        3.73200       -0.94300
H          7.23000        2.87600       -1.60200
C          7.67600        4.97900       -1.38100
H          8.09100        5.08300       -2.37200
C          7.59800        6.10300       -0.53000
O          8.00300        7.31900       -0.97600
H          7.98300        7.34600       -1.93800
C          7.06000        5.97100        0.76600
H          7.01600        6.83700        1.40900
C          6.57700        4.72200        1.20200
H          6.15400        4.62300        2.19300
C          3.94400        0.83400        0.78500
O          4.29800       -0.32600        0.60700
N          2.90700        1.14800        1.57500
H          2.70700        2.13000        1.72800
C          2.00500        0.16500        2.19400
H          2.61900       -0.57700        2.70500
C          1.13900        0.87600        3.25000
H          0.65000        0.11800        3.86200
H          1.78400        1.46800        3.90100
C          0.06200        1.79100        2.64300
H          0.53800        2.47200        1.93900
H         -0.65300        1.18400        2.08700
S         -0.85900        2.79500        3.84200
C         -1.80500        1.50500        4.69600
H         -1.12600        0.82900        5.21600
H         -2.47300        1.96700        5.42200
H         -2.39400        0.94100        3.97200
C          1.11800       -0.60700        1.19200
O          0.41700       -1.53400        1.58100
N          1.08500       -0.24100       -0.08400
H          1.64200        0.53800       -0.40900
H          0.50700       -0.76700       -0.71600
