66
0 1
H          7.94000        3.76400        1.94900
C          7.53500        4.56500        1.33200
H          7.45500        5.47400        1.92400
H          6.55500        4.27500        0.95700
C          8.46700        4.80400        0.16800
O          9.49700        4.15000        0.05500
N          8.11900        5.75500       -0.69600
H          7.26400        6.26000       -0.53000
C          8.91400        6.12400       -1.87500
H          9.32200        5.20400       -2.29700
C          7.98800        6.73800       -2.93900
H          7.13900        6.06900       -3.08900
H          7.59500        7.68400       -2.56200
C          8.63700        6.96200       -4.29500
C          8.75000        8.26500       -4.82200
H          8.39900        9.11200       -4.25000
C          9.32900        8.46700       -6.09000
H          9.42300        9.46100       -6.50000
C          9.81300        7.36800       -6.82800
O         10.40500        7.56800       -8.03300
H         10.98500        6.83800       -8.25800
C          9.71000        6.06400       -6.29800
H         10.08300        5.22200       -6.86100
C          9.11300        5.86300       -5.03800
H          9.02100        4.86100       -4.64300
C         10.12700        7.00700       -1.51200
O         10.21800        8.17200       -1.89500
N         11.06200        6.45600       -0.73100
H         10.89500        5.50600       -0.41200
C         12.32700        7.09600       -0.34200
H         12.13300        8.14700       -0.12800
C         12.89100        6.43400        0.93800
H         12.88500        5.35000        0.80800
H         13.93700        6.73100        1.03600
C         12.22300        6.77600        2.28700
H         12.79600        6.26800        3.06200
C         12.26800        8.27500        2.59500
H         11.93200        8.44500        3.61800
H         13.29000        8.64000        2.49900
H         11.61900        8.82700        1.91600
C         10.77500        6.30300        2.41500
H         10.72100        5.23900        2.18500
H         10.43200        6.45700        3.43800
H         10.13000        6.86300        1.73900
C         13.32700        7.08400       -1.51900
O         14.36600        6.42600       -1.47600
N         12.98600        7.79700       -2.59500
H         12.09000        8.27300       -2.55600
C         13.73700        7.87700       -3.85500
H         14.06200        6.86800       -4.10900
C         12.77300        8.34700       -4.95900
H         11.85900        7.75800       -4.90100
H         12.51100        9.39200       -4.78300
C         13.34100        8.21000       -6.37800
H         12.67600        8.74400       -7.05700
H         14.31700        8.69200       -6.43100
S         13.49600        6.50100       -6.97000
C         14.25100        6.82300       -8.58500
H         14.41700        5.87900       -9.10500
H         13.59100        7.45400       -9.18100
H         15.20700        7.33000       -8.44700
C         15.01300        8.74100       -3.73500
O         15.15400        9.78800       -4.35700
N         15.95700        8.34000       -2.89700
H         15.80500        7.50300       -2.34900
H         16.78500        8.90100       -2.79600
