60
0 1
H          6.67200       11.04400       -0.66500
C          6.04800       11.86100       -1.02000
H          6.60400       12.79700       -0.97300
H          5.15400       11.94400       -0.40400
C          5.64300       11.60400       -2.45100
O          5.92000       12.41400       -3.32600
N          4.97600       10.47600       -2.68800
H          4.78800        9.86100       -1.90900
C          4.43300       10.09700       -3.99700
H          4.09300       11.00300       -4.49400
C          5.54100        9.48300       -4.86700
H          6.37700       10.18100       -4.93200
H          5.91000        8.57200       -4.39200
C          5.07400        9.15900       -6.27300
C          4.56000        7.88300       -6.57400
H          4.53800        7.11300       -5.81300
C          4.05900        7.61200       -7.86100
H          3.65900        6.63900       -8.10400
C          4.07700        8.61500       -8.85200
O          3.58600        8.34900      -10.08900
H          3.71800        9.08000      -10.69400
C          4.59900        9.89300       -8.55200
H          4.61300       10.66500       -9.30600
C          5.09600       10.16200       -7.26200
H          5.48700       11.14300       -7.02500
C          3.26000        9.10400       -3.84800
O          3.36700        8.19200       -3.02100
N          2.15100        9.24200       -4.60800
C          1.08000        8.25400       -4.62400
H          0.82800        7.91000       -3.62100
H          1.38700        7.40600       -5.23800
C         -0.11800        8.94800       -5.26500
H         -0.66600        9.51400       -4.51000
H         -0.77400        8.23900       -5.77100
C          0.55400        9.90500       -6.24800
H         -0.10000       10.73600       -6.51600
H          0.85000        9.35600       -7.14400
C          1.80800       10.36400       -5.49600
H          2.60400       10.52500       -6.22200
C          1.55900       11.69700       -4.76300
O          1.59000       12.74800       -5.39400
N          1.37700       11.67400       -3.43800
H          1.25500       10.76000       -3.01800
C          1.30100       12.83600       -2.53200
H          0.60300       13.54200       -2.98400
C          0.68800       12.40700       -1.17300
H          0.50700       13.31400       -0.59300
H         -0.28900       11.95800       -1.36000
C          1.51100       11.44400       -0.28300
H          2.49400       11.86200       -0.07300
H          1.00100       11.33000        0.67200
C          1.68200       10.05200       -0.88200
O          0.88400        9.52100       -1.64000
O          2.84100        9.43000       -0.58900
H          2.85000        8.63100       -1.13600
C          2.63700       13.61200       -2.38300
O          3.07800       13.92300       -1.28200
N          3.33000       13.90800       -3.47100
H          4.25000       14.30700       -3.36700
H          2.95800       13.67400       -4.38200
