64
0 1
H          5.62100        5.28700        2.13000
C          5.76500        6.07300        2.86900
H          5.98600        5.62400        3.83600
H          4.86500        6.68100        2.93800
C          6.92300        6.94300        2.44400
O          7.45500        6.77900        1.35400
N          7.32300        7.86700        3.31800
H          6.83500        7.92600        4.19600
C          8.38800        8.84900        3.05600
H          8.10400        9.44500        2.18700
C          8.48000        9.78300        4.27300
H          7.50700       10.25100        4.43100
H          8.70100        9.18400        5.15900
C          9.51800       10.88300        4.15600
C          9.26700       12.00000        3.33400
H          8.33700       12.07000        2.78700
C         10.23000       13.02100        3.21200
H         10.03800       13.87200        2.57800
C         11.44900       12.92500        3.91800
O         12.38600       13.90200        3.80600
H         12.15100       14.54800        3.13900
C         11.69800       11.81000        4.74500
H         12.63600       11.74700        5.27500
C         10.73500       10.79000        4.86200
H         10.93700        9.93200        5.48800
C          9.75600        8.21700        2.73000
O         10.55700        8.80500        2.00800
N         10.00500        6.98600        3.18900
H          9.27200        6.50800        3.69700
C         11.20500        6.20000        2.87100
H         12.09200        6.77200        3.14500
C         11.16500        4.90800        3.70000
H         12.08800        4.35000        3.53500
H         11.11400        5.16100        4.75900
C          9.98900        4.02600        3.35500
N          8.66600        4.25500        3.74200
C          7.94400        3.29100        3.14900
H          6.87200        3.18200        3.24100
N          8.73400        2.49300        2.41100
H          8.41800        1.72000        1.84100
C         10.02900        2.94600        2.52300
H         10.90800        2.55800        2.02500
C         11.34600        5.85500        1.37800
O         12.42600        5.45600        0.95600
N         10.28100        5.99500        0.58100
H          9.40700        6.29800        0.99700
C         10.30900        5.81600       -0.87700
H         11.01800        5.02100       -1.11300
C          8.92400        5.37300       -1.37800
H          8.22200        6.19900       -1.26100
H          8.99400        5.12600       -2.43800
C          8.39300        4.14400       -0.62400
H          9.17600        3.38600       -0.61300
H          8.18700        4.42700        0.40800
S          6.89400        3.38100       -1.30500
C          5.73700        4.77400       -1.21200
H          6.04700        5.55800       -1.90200
H          4.73800        4.43500       -1.48500
H          5.72100        5.17300       -0.19800
C         10.78900        7.06900       -1.63800
O         10.89100        7.05000       -2.85900
N         11.07500        8.17800       -0.96500
H         10.98400        8.20600        0.04200
H         11.39400        8.98000       -1.48000
