63
0 1
H         17.06300        7.91700        2.91400
C         16.12200        8.43600        3.08800
H         16.09000        9.34600        2.49300
H         16.02900        8.68800        4.14300
C         14.97300        7.53900        2.69000
O         14.13100        7.21100        3.51800
N         14.93600        7.13800        1.42000
H         15.71000        7.38300        0.82400
C         13.82700        6.37400        0.82700
H         12.89900        6.91500        1.01900
C         14.02600        6.30000       -0.69500
H         13.16200        5.80000       -1.13500
H         14.04400        7.31500       -1.09600
C         15.28500        5.57100       -1.13400
C         16.45800        6.29600       -1.42800
H         16.46000        7.37500       -1.37400
C         17.63200        5.61400       -1.80200
H         18.53700        6.15700       -2.02900
C         17.63600        4.20700       -1.88700
O         18.77300        3.55700       -2.24800
H         18.65800        2.60700       -2.25500
C         16.45900        3.48000       -1.60300
H         16.45700        2.40400       -1.67100
C         15.28600        4.16500       -1.23100
H         14.38400        3.60800       -1.01300
C         13.63900        4.96500        1.42000
O         12.56200        4.39100        1.29100
N         14.65300        4.40700        2.09000
H         15.52800        4.91700        2.14600
C         14.53600        3.15800        2.85600
H         14.00400        2.43500        2.23500
C         15.94500        2.58900        3.13300
H         15.84100        1.52300        3.33800
H         16.55200        2.68700        2.23100
C         16.70100        3.21500        4.32200
H         16.20100        2.93400        5.24900
H         17.70700        2.79900        4.36000
C         16.81700        4.73500        4.25100
O         17.15300        5.31400        3.22900
N         16.48900        5.44500        5.30500
H         16.51200        6.44200        5.21400
H         16.07600        4.98900        6.11500
C         13.71800        3.31700        4.15400
O         13.34000        2.32000        4.76300
N         13.46000        4.55800        4.58900
H         13.80800        5.33600        4.04000
C         12.78000        4.89800        5.84100
H         12.91200        5.97000        5.99000
C         11.26000        4.64300        5.70100
H         11.07700        3.56900        5.63600
H         10.75400        5.01900        6.59100
C         10.63100        5.31900        4.46500
H         11.04600        4.88700        3.55500
H          9.56000        5.12000        4.45700
C         10.83200        6.83300        4.43300
O         11.02200        7.54300        5.41100
O         10.75400        7.40000        3.21500
H         10.94600        8.32500        3.37000
C         13.46300        4.24400        7.06500
O         14.68800        4.25700        7.17500
N         12.71800        3.71600        8.02800
H         13.18700        3.29500        8.81300
H         11.71600        3.69500        7.94000
