64
0 1
H         -0.16300       -2.13600       -1.62600
C          0.35700       -1.66200       -0.79400
H          0.94800       -2.40700       -0.26400
H         -0.36900       -1.21200       -0.12000
C          1.27100       -0.58900       -1.33700
O          1.32800       -0.37800       -2.54100
N          1.99400        0.08700       -0.44700
H          1.91900       -0.16600        0.52600
C          2.93100        1.16000       -0.79400
H          3.33700        0.95200       -1.78500
C          2.17300        2.49900       -0.87000
H          1.47400        2.46100       -1.70600
H          1.58600        2.61500        0.04300
C          3.05700        3.72300       -1.03900
C          3.01200        4.76000       -0.08700
H          2.31100        4.72100        0.73800
C          3.88300        5.86000       -0.19900
H          3.84700        6.66100        0.52600
C          4.83000        5.90900       -1.24200
O          5.75000        6.90500       -1.27500
H          5.92500        7.25100       -0.38700
C          4.84900        4.89100       -2.21800
H          5.55800        4.95700       -3.03000
C          3.94900        3.81000       -2.12900
H          3.95100        3.04500       -2.89400
C          4.11700        1.20800        0.18400
O          3.97300        0.89800        1.36700
N          5.29200        1.60900       -0.31300
H          5.31300        1.90400       -1.27800
C          6.57000        1.63100        0.42000
H          6.65300        0.70800        0.99600
C          7.73100        1.66900       -0.59000
H          7.64500        2.56700       -1.20500
H          8.67700        1.71400       -0.04900
C          7.76200        0.43500       -1.49900
H          7.87400       -0.45400       -0.87800
H          6.82100        0.35900       -2.04300
S          9.10800        0.46700       -2.71100
C          8.82900       -1.12700       -3.52600
H          7.83500       -1.14200       -3.97400
H          9.57700       -1.26900       -4.30700
H          8.91300       -1.93300       -2.79700
C          6.71300        2.78400        1.43300
O          7.70900        2.83500        2.14900
N          5.73400        3.69300        1.50900
H          4.95900        3.58200        0.87200
C          5.70600        4.89400        2.36100
H          4.75100        5.38300        2.17700
C          5.67800        4.53500        3.86200
H          6.66600        4.20200        4.18100
H          5.43400        5.43700        4.42500
C          4.65600        3.43800        4.21900
H          5.00600        2.48100        3.83000
H          4.60000        3.34600        5.30400
C          3.25300        3.71900        3.68600
O          2.69800        4.79100        3.84000
N          2.62100        2.78300        3.01400
H          3.09000        1.92000        2.76400
H          1.68200        2.99800        2.73900
C          6.76400        5.94900        1.98800
O          6.42200        7.01900        1.49100
N          8.04800        5.66300        2.14800
H          8.73600        6.34800        1.88300
H          8.31000        4.74300        2.47700
