64
0 1
H          5.99300        6.59600       -0.10700
C          6.28400        7.37500        0.59600
H          5.61800        8.23000        0.49300
H          7.31000        7.68400        0.40400
C          6.17900        6.83800        2.00400
O          5.42900        7.37000        2.81200
N          6.92500        5.77500        2.29100
H          7.51000        5.38300        1.56800
C          6.95400        5.10200        3.59300
H          6.91600        5.86000        4.37600
C          5.71800        4.19600        3.74800
H          5.86500        3.53400        4.60100
H          4.86600        4.83300        3.99100
C          5.35600        3.36400        2.52700
C          4.31400        3.78100        1.67500
H          3.77800        4.69700        1.89100
C          3.97400        3.01600        0.54300
H          3.17500        3.33900       -0.10600
C          4.68000        1.82500        0.26100
O          4.35400        1.07500       -0.82300
H          3.69300        1.49900       -1.37100
C          5.72400        1.41000        1.11100
H          6.26000        0.49800        0.89100
C          6.06200        2.18200        2.23800
H          6.86000        1.85800        2.89000
C          8.26200        4.31600        3.77500
O          8.88000        3.88600        2.80100
N          8.69300        4.12800        5.02700
H          8.13400        4.49600        5.78100
C         10.03900        3.62200        5.35500
H         10.77100        4.25000        4.84400
C         10.29000        3.72500        6.86900
H          9.60200        3.06000        7.39200
H         11.30500        3.38500        7.08000
C         10.12100        5.14300        7.43500
H          9.06700        5.41500        7.38500
H         10.40000        5.12600        8.48900
S         11.07400        6.45500        6.61600
C         12.77200        5.91100        6.94700
H         12.96000        4.95800        6.45400
H         13.47000        6.65400        6.56100
H         12.92100        5.80300        8.02200
C         10.31200        2.18200        4.89100
O         11.46200        1.82800        4.65100
N          9.27400        1.35300        4.75400
H          8.35300        1.68700        5.00700
C          9.35600       -0.02000        4.23500
H         10.34900       -0.41600        4.45100
C          8.33200       -0.88600        4.98500
H          8.41700       -1.92000        4.64900
H          8.56900       -0.86800        6.04900
C          6.90700       -0.42500        4.81100
N          6.33300        0.68600        5.43700
C          5.07000        0.74200        4.98600
H          4.35000        1.49900        5.26900
N          4.83900       -0.24400        4.10200
H          3.98300       -0.37600        3.58200
C          5.99000       -0.98800        3.97500
H          6.15900       -1.83700        3.32600
C          9.19400       -0.11400        2.70300
O          8.94200       -1.18700        2.16800
N          9.29600        0.98500        1.96600
H          9.18400        0.90600        0.97000
H          9.47400        1.88000        2.40000
