64
0 1
H          3.12400       11.48100       -5.61800
C          3.61800       10.69200       -6.18200
H          3.93000       11.07800       -7.15200
H          2.93800        9.85500       -6.32600
C          4.83800       10.22300       -5.42600
O          5.95200       10.31000       -5.93100
N          4.63800        9.71900       -4.20900
H          3.69500        9.65700       -3.86200
C          5.72000        9.18000       -3.38100
H          6.57100        9.85800       -3.45600
C          5.29300        9.16200       -1.90300
H          4.94200       10.15700       -1.62400
H          4.45900        8.47000       -1.77300
C          6.42300        8.77400       -0.96600
C          7.37300        9.73700       -0.57200
H          7.26700       10.76500       -0.89000
C          8.47500        9.35700        0.22100
H          9.22200       10.07800        0.51500
C          8.63000        8.01100        0.61200
O          9.75200        7.61800        1.26700
H         10.00400        6.72400        0.99500
C          7.65700        7.05800        0.25200
H          7.77200        6.03100        0.56500
C          6.55500        7.44000       -0.53400
H          5.82600        6.69900       -0.83300
C          6.19300        7.80600       -3.89900
O          5.78800        6.75500       -3.40800
N          7.05300        7.81200       -4.92000
H          7.23600        8.70300       -5.37000
C          7.63600        6.59700       -5.50600
H          6.82500        5.89800       -5.71200
C          8.29100        6.99400       -6.84500
H          7.53000        7.45000       -7.48000
H          9.05500        7.74900       -6.65000
C          8.95000        5.85100       -7.63700
H          9.35800        6.26200       -8.56100
H          9.78300        5.43600       -7.07000
C          7.97600        4.73500       -8.00500
O          7.34900        4.74100       -9.04700
N          7.79900        3.74200       -7.16200
H          8.27100        3.75000       -6.26500
H          7.15100        3.02900       -7.44100
C          8.62800        5.88300       -4.56000
O          8.86900        4.68400       -4.69900
N          9.20200        6.60600       -3.59400
H          8.94600        7.58100       -3.54800
C         10.28200        6.16700       -2.69700
H         10.96300        5.54900       -3.28300
C         11.08000        7.39500       -2.21000
H         10.45300        8.01300       -1.57000
H         11.92200        7.04000       -1.61500
C         11.65000        8.25800       -3.35000
H         12.45800        8.86600       -2.94100
H         12.09000        7.59500       -4.09600
S         10.49000        9.38300       -4.19200
C         10.25300       10.64600       -2.91500
H         11.21200       11.10200       -2.66700
H          9.57700       11.41600       -3.28900
H          9.82400       10.19500       -2.02200
C          9.80200        5.27400       -1.52900
O         10.26600        5.39000       -0.39700
N          8.83700        4.39500       -1.75900
H          8.47200        4.29600       -2.69600
H          8.51500        3.81600       -1.00300
