63
0 1
H          4.59500        8.24000        7.55900
C          4.39000        9.19800        8.03400
H          5.04600        9.32500        8.89400
H          3.35200        9.23800        8.35900
C          4.65100       10.31300        7.04900
O          5.49200       11.16900        7.29300
N          3.92800       10.30700        5.93100
H          3.24400        9.58000        5.80600
C          4.03400       11.33900        4.89500
H          5.09200       11.53100        4.71100
C          3.43500       10.80500        3.58500
H          4.00100        9.92800        3.27000
H          2.40800       10.48500        3.77100
C          3.44300       11.81100        2.44800
C          4.66300       12.24100        1.88900
H          5.60000       11.83400        2.24400
C          4.66700       13.21600        0.87200
H          5.59600       13.57500        0.45100
C          3.45100       13.75900        0.41000
O          3.45400       14.77000       -0.49300
H          2.77700       15.42600       -0.27700
C          2.23000       13.30500        0.94900
H          1.30200       13.72000        0.58500
C          2.22700       12.33800        1.97100
H          1.29000       12.01500        2.40400
C          3.40300       12.66900        5.35500
O          2.22500       12.94300        5.13100
N          4.20800       13.51400        6.00200
H          5.14900       13.19000        6.19600
C          3.81700       14.80300        6.59600
H          2.90300       14.62800        7.16600
C          4.90300       15.24300        7.60100
H          4.48600       16.03600        8.22300
H          5.14200       14.40900        8.26100
C          6.19900       15.78200        6.96800
H          5.95200       16.64400        6.34800
H          6.84000       16.14600        7.77100
S          7.17100       14.61900        5.96300
C          7.85900       13.55600        7.26100
H          8.45100       12.76300        6.80400
H          8.49600       14.14700        7.91900
H          7.05600       13.10800        7.84500
C          3.47900       15.92300        5.58700
O          3.34000       17.07700        5.98100
N          3.36200       15.61100        4.29200
H          3.43200       14.63400        4.04400
C          3.12500       16.57200        3.20300
H          2.88500       17.54200        3.64200
C          4.41100       16.76000        2.37300
H          4.70400       15.80500        1.93900
H          4.20900       17.46000        1.56000
C          5.58300       17.31200        3.20200
H          5.28600       18.25100        3.66800
H          5.84400       16.60600        3.98800
C          6.84000       17.55800        2.37300
O          6.99800       17.26300        1.19800
O          7.85100       18.14700        3.03900
H          8.55500       18.22400        2.39400
C          1.89100       16.19900        2.35400
O          1.82000       16.46600        1.15800
N          0.90600       15.53000        2.94300
H          0.10100       15.27800        2.39500
H          0.98700       15.26500        3.91200
