64
0 1
H         12.99200       15.27100       -2.42200
C         12.31100       15.44600       -3.25300
H         12.87700       15.73200       -4.13700
H         11.60700       16.23600       -2.99900
C         11.54300       14.17900       -3.54700
O         10.31700       14.18600       -3.54300
N         12.25900       13.08400       -3.79600
H         13.26000       13.13900       -3.70100
C         11.67200       11.79900       -4.20700
H         11.12500       11.95700       -5.13700
C         12.79900       10.79000       -4.48300
H         12.35600        9.89400       -4.92100
H         13.47400       11.20800       -5.23100
C         13.60200       10.38200       -3.25900
C         13.16300        9.31000       -2.45600
H         12.26700        8.76500       -2.72400
C         13.87700        8.95300       -1.29600
H         13.53300        8.13600       -0.68100
C         15.04200        9.66700       -0.94100
O         15.73900        9.33200        0.17600
H         15.34400        8.59200        0.63800
C         15.48900       10.73100       -1.75100
H         16.38400       11.26500       -1.47000
C         14.77200       11.08600       -2.91000
H         15.12600       11.89800       -3.52800
C         10.66700       11.23000       -3.18800
O          9.71900       10.55500       -3.58000
N         10.82700       11.54400       -1.89900
H         11.62900       12.11300       -1.64900
C          9.92100       11.14500       -0.81400
H          9.76100       10.07000       -0.90300
C         10.60900       11.40600        0.54400
H         10.08900       10.80800        1.29400
H         11.63700       11.04300        0.50300
C         10.60300       12.86800        1.04000
H          9.57300       13.20900        1.14700
H         11.05100       12.89500        2.03300
C         11.37000       13.85400        0.16100
O         12.32000       13.52600       -0.53000
N         10.98600       15.11000        0.13900
H         10.17200       15.41600        0.64700
H         11.51200       15.73000       -0.44500
C          8.52700       11.80100       -0.88000
O          7.65700       11.45000       -0.08800
N          8.31400       12.76400       -1.78400
H          9.08800       13.03500       -2.38100
C          7.04300       13.47700       -1.97200
H          6.23900       12.82600       -1.62600
C          7.02200       14.73600       -1.08500
H          6.01400       15.15300       -1.07600
H          7.27100       14.44600       -0.06300
C          7.99800       15.82600       -1.54300
H          8.96100       15.37300       -1.77100
H          7.61100       16.27900       -2.45700
S          8.27600       17.13000       -0.31400
C          9.18400       18.31300       -1.34200
H          9.44800       19.18600       -0.74500
H         10.09100       17.84700       -1.72600
H          8.55600       18.62600       -2.17800
C          6.73600       13.76400       -3.45600
O          5.93700       14.63400       -3.78100
N          7.36200       13.05300       -4.38600
H          8.01100       12.32800       -4.11900
H          7.16700       13.25500       -5.35200
