67
0 1
H          8.05100        5.74300       -2.15200
C          7.13800        5.44300       -1.64000
H          7.02100        4.36300       -1.70800
H          6.27800        5.93200       -2.09300
C          7.22600        5.84000       -0.18700
O          7.04000        5.00500        0.69200
N          7.48400        7.11900        0.06700
H          7.59600        7.74200       -0.71800
C          7.68900        7.68500        1.41000
H          7.95600        6.87400        2.08800
C          8.88200        8.65500        1.36100
H          8.58600        9.54800        0.80900
H          9.12600        8.96700        2.37700
C         10.13500        8.07200        0.72800
C         10.89900        7.12300        1.43400
H         10.60300        6.82200        2.42900
C         12.04700        6.56100        0.84300
H         12.64000        5.83200        1.37500
C         12.43400        6.94800       -0.45700
O         13.54200        6.40200       -1.02100
H         13.72000        6.76300       -1.88900
C         11.66700        7.89800       -1.16600
H         11.95900        8.19600       -2.16100
C         10.52000        8.45800       -0.57200
H          9.93400        9.18400       -1.11600
C          6.42600        8.34900        1.99900
O          6.52500        9.19700        2.88200
N          5.23900        8.02200        1.47600
H          5.22100        7.28500        0.78100
C          4.05800        8.90200        1.53300
H          4.29400        9.77300        2.14600
C          3.76500        9.40600        0.10800
H          3.24300        8.61700       -0.43600
H          3.09100       10.26100        0.16800
C          5.00000        9.80800       -0.68300
C          5.75100       10.93400       -0.29200
H          5.42800       11.52800        0.55300
C          6.93000       11.27400       -0.98200
H          7.50500       12.13400       -0.67200
C          7.36300       10.48100       -2.06700
O          8.50500       10.79400       -2.73000
H          8.80600       11.68100       -2.52500
C          6.61700        9.34900       -2.45400
H          6.95500        8.75500       -3.29000
C          5.43500        9.01500       -1.76500
H          4.86000        8.14800       -2.06300
C          2.80900        8.25900        2.16000
O          1.76100        8.89300        2.24500
N          2.89700        6.99700        2.58800
H          3.80600        6.56300        2.53800
C          1.75700        6.16500        3.00300
H          0.90600        6.44500        2.38200
C          2.05100        4.67500        2.71900
H          2.86500        4.33100        3.35900
H          1.16000        4.10300        2.98200
C          2.37600        4.36800        1.24200
H          2.24200        3.29900        1.07900
H          1.68400        4.90100        0.59100
C          3.81200        4.71600        0.85400
O          4.13100        5.64800        0.12300
O          4.75300        3.96900        1.46600
H          5.63000        4.28700        1.17400
C          1.30800        6.42400        4.46000
O          1.03400        5.50300        5.21900
N          1.25400        7.67700        4.89200
H          1.44100        8.43200        4.24600
H          0.97300        7.84700        5.84300
