64
0 1
H         14.98000       16.56600       -2.81100
C         14.45700       16.46900       -1.86200
H         14.11000       17.44900       -1.53600
H         15.12000       16.04900       -1.10700
C         13.26400       15.56100       -2.03600
O         12.14200       15.96600       -1.76600
N         13.51700       14.33300       -2.49000
H         14.47300       14.11000       -2.71300
C         12.49700       13.30100       -2.75000
H         11.51300       13.74900       -2.61400
C         12.59000       12.83300       -4.21400
H         13.48200       12.21300       -4.31300
H         11.72800       12.20100       -4.43100
C         12.64000       13.93200       -5.26800
C         11.80300       15.06400       -5.17400
H         11.11700       15.17000       -4.34500
C         11.86500       16.07400       -6.15200
H         11.23400       16.94700       -6.08200
C         12.75700       15.95400       -7.23700
O         12.81000       16.93100       -8.17900
H         13.41800       16.71700       -8.88600
C         13.59000       14.81800       -7.34000
H         14.27000       14.72000       -8.17100
C         13.52800       13.81200       -6.35600
H         14.16200       12.94000       -6.44100
C         12.55500       12.12700       -1.75100
O         12.04400       11.04000       -2.01200
N         13.18900       12.33900       -0.59600
H         13.51000       13.28500       -0.41700
C         13.41400       11.36700        0.48800
H         13.98700       10.52100        0.10700
C         14.23200       12.07700        1.58300
H         14.28800       11.44600        2.47100
H         15.24700       12.23100        1.21700
C         13.65700       13.42500        1.95200
N         13.83300       14.58900        1.20000
C         12.99800       15.49700        1.72400
H         12.86700       16.50200        1.34200
N         12.32100       14.96800        2.75800
H         11.60200       15.44400        3.28500
C         12.71600       13.65700        2.91100
H         12.31000       12.92500        3.59700
C         12.12900       10.78200        1.09600
O         12.17600        9.71100        1.69100
N         10.98900       11.46200        0.95000
H         11.03400       12.35200        0.47400
C          9.66200       10.97300        1.34900
H          9.77900       10.39200        2.26500
C          8.74800       12.16900        1.67800
H          7.82000       11.78100        2.10000
H          9.22200       12.78700        2.44300
C          8.38800       13.05300        0.47400
H          8.04600       12.42500       -0.34800
H          7.55300       13.69100        0.76800
S          9.72200       14.13300       -0.11500
C          8.88900       14.92100       -1.51800
H          9.56600       15.63600       -1.98600
H          8.60300       14.16300       -2.24900
H          7.99900       15.44500       -1.17000
C          9.00800       10.02400        0.32300
O          7.88800        9.57200        0.52900
N          9.64700        9.72000       -0.80100
H         10.56300       10.10500       -0.99400
H          9.20100        9.09500       -1.45000
