63
0 1
H         17.33700        7.66300       -5.15900
C         17.38700        8.07700       -4.15300
H         18.42600        8.21000       -3.85700
H         16.89200        7.40400       -3.45500
C         16.68500        9.41200       -4.13100
O         15.70000        9.58200       -3.42300
N         17.18100       10.36500       -4.91900
H         18.01400       10.15800       -5.44600
C         16.67800       11.74900       -4.95400
H         16.74000       12.15700       -3.94500
C         17.58700       12.58600       -5.86700
H         17.41800       12.28400       -6.90300
H         17.29800       13.63500       -5.78300
C         19.06800       12.46700       -5.55200
C         19.58700       13.06800       -4.38800
H         18.93300       13.63100       -3.73500
C         20.95300       12.93800       -4.07300
H         21.34800       13.40100       -3.18100
C         21.80400       12.20300       -4.92600
O         23.12300       12.07000       -4.63200
H         23.37100       12.56500       -3.85100
C         21.28400       11.60100       -6.09100
H         21.94800       11.04700       -6.73800
C         19.91800       11.73400       -6.40400
H         19.52800       11.28000       -7.30500
C         15.21000       11.88500       -5.40100
O         14.58300       12.91000       -5.15000
N         14.64600       10.85600       -6.03900
H         15.19900       10.01900       -6.17400
C         13.23200       10.77400       -6.42200
H         12.91500       11.71400       -6.87500
C         13.09500        9.63200       -7.44600
H         12.08700        9.64800       -7.86200
H         13.79900        9.78500       -8.26400
C         13.34400        8.27500       -6.82500
N         14.59000        7.79000       -6.41700
C         14.33500        6.65900       -5.74000
H         15.08700        6.04400       -5.26300
N         13.01300        6.42700       -5.68300
H         12.56600        5.70400       -5.11700
C         12.37200        7.43600       -6.36400
H         11.30400        7.59300       -6.44100
C         12.29200       10.48100       -5.24100
O         11.08000       10.61600       -5.38400
N         12.81400        9.98400       -4.11300
H         13.82500        9.92300       -4.04800
C         12.03900        9.13100       -3.20600
H         11.44800        8.47600       -3.84700
C         13.02500        8.25000       -2.40900
H         13.73800        7.81800       -3.11200
H         13.58200        8.87700       -1.71200
C         12.39800        7.08100       -1.63100
H         13.19800        6.44200       -1.25800
H         11.85100        7.45300       -0.76500
C         11.47700        6.23600       -2.50600
O         11.88400        5.35500       -3.25600
O         10.16500        6.58000       -2.44500
H         10.03400        7.40300       -1.95000
C         11.02300        9.85900       -2.30400
O         10.25400        9.20300       -1.60300
N         10.98500       11.18500       -2.29300
H         11.58400       11.70200       -2.91800
H         10.29800       11.64600       -1.72100
