63
0 1
H          6.00400       11.52500       -4.05900
C          7.06600       11.46700       -4.29100
H          7.56200       12.39100       -4.00100
H          7.19700       11.30200       -5.36000
C          7.68000       10.31100       -3.53800
O          8.21600        9.39400       -4.14700
N          7.60000       10.35300       -2.21000
H          7.11100       11.12300       -1.78000
C          8.11000        9.30700       -1.31900
H          7.98000        8.34300       -1.81400
C          9.61900        9.51800       -1.08500
H         10.15300        9.37600       -2.02600
H          9.78700       10.54600       -0.75800
C         10.18700        8.56800       -0.05200
C         10.53400        9.04800        1.22600
H         10.54300       10.11200        1.42600
C         10.83600        8.13900        2.25500
H         11.08300        8.49300        3.24500
C         10.79900        6.75100        2.00600
O         10.96000        5.87900        3.03100
H         10.58900        6.26200        3.84400
C         10.51300        6.27400        0.71100
H         10.50500        5.20900        0.53100
C         10.21200        7.18400       -0.32100
H          9.96600        6.81800       -1.31000
C          7.31300        9.25200       -0.00000
O          6.72200       10.24900        0.41100
N          7.32100        8.09700        0.67800
H          7.89900        7.35400        0.31300
C          6.50800        7.78600        1.86500
H          5.46100        7.89800        1.58200
C          6.76900        6.31000        2.23000
H          6.64100        5.69600        1.33600
H          7.80700        6.21100        2.55300
C          5.86700        5.73500        3.33700
H          6.19100        4.71800        3.55500
H          5.97800        6.31300        4.25200
C          4.38600        5.68300        2.96800
O          3.91300        5.92100        1.86700
O          3.56800        5.30600        3.96900
H          2.68800        5.33500        3.59100
C          6.74200        8.71500        3.07600
O          5.86000        8.85400        3.91900
N          7.90500        9.36700        3.16100
H          8.61100        9.14300        2.47400
C          8.19400       10.46100        4.10200
H          7.24600       10.81600        4.50800
C          9.04400        9.97700        5.29700
H         10.02000        9.63300        4.95400
H          9.21800       10.84000        5.94200
C          8.37100        8.90400        6.17300
H          8.78400        8.98300        7.17900
H          7.30300        9.11100        6.24600
C          8.58100        7.45800        5.72100
O          9.41200        7.12000        4.89300
N          7.84400        6.52200        6.27600
H          8.03500        5.57600        6.00100
H          7.13800        6.76400        6.94800
C          8.80200       11.68300        3.38200
O          9.68900       12.35600        3.89000
N          8.37900       11.97000        2.15700
H          7.64500       11.42100        1.72700
H          8.77300       12.77200        1.69400
