71
0 1
H          4.33400        5.11300       -3.20500
C          4.38100        5.31400       -4.27400
H          3.65100        4.69800       -4.79700
H          5.37600        5.08500       -4.64600
C          4.06800        6.76900       -4.51700
O          2.98100        7.08900       -4.97600
N          5.02100        7.65200       -4.22500
H          5.91100        7.29600       -3.91300
C          4.85400        9.11700       -4.25700
H          4.00500        9.37900       -3.62300
C          6.11600        9.76100       -3.65900
H          5.99500       10.84500       -3.66000
H          6.20200        9.45300       -2.61600
C          7.40400        9.41000       -4.38700
C          7.75500       10.09100       -5.57000
H          7.11900       10.88500       -5.94500
C          8.92900        9.74500       -6.26700
H          9.19100       10.26800       -7.17400
C          9.76100        8.71700       -5.77300
O         10.89200        8.36900       -6.43800
H         11.04100        8.91500       -7.21100
C          9.41600        8.04300       -4.58400
H         10.06800        7.26700       -4.21200
C          8.24000        8.38900       -3.89100
H          7.98900        7.87700       -2.97300
C          4.55300        9.71300       -5.64900
O          4.22900       10.89100       -5.75700
N          4.67000        8.92100       -6.71600
H          4.94200        7.96400       -6.55600
C          4.31400        9.29100       -8.09200
H          4.54900       10.34300       -8.25400
C          5.17300        8.44700       -9.04300
H          4.90300        8.67600      -10.07600
H          6.21600        8.74000       -8.91400
C          5.07500        6.96600       -8.82800
C          4.15300        6.15200       -9.38700
H          3.38500        6.47900      -10.08100
N          4.33600        4.86100       -8.93000
H          3.77000        4.08000       -9.23000
C          5.39200        4.78000       -8.04600
C          5.97100        3.71800       -7.33700
H          5.58200        2.71600       -7.44200
C          7.07700        3.97200       -6.50600
H          7.54800        3.16100       -5.96700
C          7.57200        5.28300       -6.38000
H          8.42900        5.47400       -5.74800
C          6.97500        6.34400       -7.08800
H          7.37800        7.34200       -6.99700
C          5.87900        6.11800       -7.95000
C          2.81500        9.12000       -8.41500
O          2.40900        9.35400       -9.55200
N          1.99100        8.68100       -7.45800
H          2.36500        8.51900       -6.53100
C          0.55700        8.42900       -7.64400
H          0.17200        9.15900       -8.35700
C          0.35500        7.02700       -8.26300
H         -0.70700        6.87000       -8.45700
H          0.85600        7.01700       -9.23200
C          0.89600        5.83800       -7.44900
H          0.91900        4.96300       -8.09800
H          1.92100        6.02800       -7.13200
C          0.02500        5.48700       -6.24800
O         -1.07800        4.98800       -6.38000
N          0.46800        5.74400       -5.04100
H          1.31300        6.29900       -4.92500
H         -0.16100        5.56500       -4.28300
C         -0.23000        8.64000       -6.33600
O          0.33800        8.82200       -5.26500
N         -1.55400        8.62200       -6.39700
H         -2.06800        8.74300       -5.54000
H         -2.02200        8.44500       -7.27000
