68
0 1
H         10.50500        4.69500        3.84100
C         11.31200        5.12900        3.25600
H         11.85900        4.33700        2.74600
H         11.99000        5.67900        3.90500
C         10.73600        6.06800        2.22200
O         10.91800        5.85900        1.03100
N         10.04200        7.10600        2.68200
H          9.97000        7.23900        3.68000
C          9.44000        8.14100        1.83700
H         10.08700        8.30300        0.97300
C          8.07300        7.65600        1.31900
H          8.22300        6.78600        0.67800
H          7.46400        7.34000        2.16400
C          7.31800        8.71100        0.53800
C          7.72200        9.03700       -0.77200
H          8.50100        8.46400       -1.25700
C          7.12300       10.12200       -1.44100
H          7.42800       10.39000       -2.44200
C          6.12300       10.88200       -0.80000
O          5.59000       11.96200       -1.42600
H          5.09200       12.50900       -0.81600
C          5.70300       10.53900        0.50200
H          4.94700       11.12700        0.99900
C          6.29900        9.45200        1.16800
H          6.00000        9.21100        2.17900
C          9.34100        9.48300        2.58900
O          9.36600        9.51800        3.82100
N          9.23200       10.59600        1.85500
H          9.12700       10.48900        0.85600
C          9.06200       11.94100        2.41400
H          9.70500       12.01400        3.29200
C          9.55900       12.98700        1.39800
H         10.59200       12.75800        1.13800
H          8.96000       12.92200        0.48800
C          9.49700       14.43000        1.92600
H          9.98700       15.08200        1.20100
H          8.45400       14.74200        1.97800
S         10.24500       14.72000        3.55800
C         11.99500       14.42400        3.18500
H         12.13900       13.39100        2.87100
H         12.31900       15.09600        2.39000
H         12.59100       14.61200        4.07800
C          7.62000       12.18300        2.89900
O          6.83600       12.88800        2.26800
N          7.26900       11.59300        4.04400
H          7.92600       10.94000        4.45300
C          5.97500       11.79400        4.71600
H          5.18600       11.69400        3.97000
C          5.77400       10.69100        5.76800
H          6.57700       10.75200        6.50400
H          4.83800       10.87600        6.29800
C          5.71000        9.28300        5.20400
C          6.80300        8.40400        5.34500
H          7.70200        8.73600        5.84600
C          6.72700        7.09300        4.83600
H          7.56300        6.42200        4.94800
C          5.55500        6.66100        4.17600
O          5.47500        5.40300        3.67200
H          6.25000        4.87900        3.87200
C          4.46400        7.54300        4.03100
H          3.57300        7.20100        3.52600
C          4.54100        8.85000        4.55000
H          3.69700        9.52000        4.44900
C          5.79400       13.19300        5.34900
O          4.75200       13.48200        5.92500
N          6.77600       14.08500        5.28300
H          6.62300       14.99000        5.69500
H          7.62200       13.87100        4.78200
