75
0 1
H         13.65100        1.67100       -3.07700
C         13.82500        1.43400       -2.02900
H         14.74100        1.91000       -1.68500
H         13.90700        0.35500       -1.90900
C         12.66100        1.93100       -1.20600
O         11.98500        1.14700       -0.55100
N         12.42200        3.24100       -1.23200
H         12.99100        3.82800       -1.81900
C         11.26500        3.83600       -0.56300
H         11.18900        3.38200        0.42600
C         11.48300        5.34400       -0.36600
H         12.38700        5.48900        0.22700
H         11.65700        5.79100       -1.34700
C         10.35100        6.09800        0.31800
C          9.67000        5.55100        1.42800
H          9.95500        4.59100        1.83400
C          8.61200        6.25800        2.03100
H          8.07400        5.83100        2.86300
C          8.26400        7.54300        1.56400
O          7.19300        8.19600        2.08300
H          6.40700        7.63100        2.09900
C          8.97000        8.10800        0.48300
H          8.69100        9.08700        0.12400
C          9.99700        7.38000       -0.14800
H         10.51200        7.81200       -0.99600
C          9.96600        3.53000       -1.32700
O          9.84700        3.79800       -2.52000
N          8.98200        2.98200       -0.61500
H          9.16800        2.78100        0.35600
C          7.65700        2.59200       -1.11700
H          7.76800        2.09100       -2.07900
C          7.05800        1.60700       -0.10100
H          6.07400        1.28600       -0.44600
H          7.69200        0.72100       -0.05500
C          6.93500        2.17700        1.28200
C          5.85100        2.82000        1.76900
H          4.92100        2.95600        1.22800
N          6.13500        3.32600        3.02200
H          5.47700        3.87000        3.56200
C          7.43000        3.04400        3.40100
C          8.19000        3.37000        4.53300
H          7.75600        3.95100        5.33400
C          9.52300        2.93100        4.61100
H         10.12300        3.17000        5.47900
C         10.07300        2.16900        3.56500
H         11.09500        1.81900        3.63700
C          9.30200        1.84600        2.43200
H          9.73800        1.24200        1.64600
C          7.96200        2.28400        2.31700
C          6.68500        3.77000       -1.32000
O          5.58500        3.56300       -1.82800
N          7.05700        4.98500       -0.89900
H          7.99200        5.07400       -0.52900
C          6.21400        6.18800       -0.84200
H          6.81800        6.96300       -0.38800
C          5.90600        6.73400       -2.24600
H          5.37000        5.98600       -2.83100
H          5.25400        7.60300       -2.14800
C          7.16300        7.15100       -2.98900
C          7.89200        6.20300       -3.73200
H          7.53800        5.18300       -3.80500
C          9.10600        6.56300       -4.34500
H          9.67300        5.81900       -4.88500
C          9.59000        7.88300       -4.22400
O         10.76900        8.23400       -4.80000
H         11.13300        7.51600       -5.31800
C          8.85400        8.83800       -3.49200
H          9.23500        9.84400       -3.40700
C          7.64300        8.47100       -2.87300
H          7.09100        9.19900       -2.29600
C          4.99900        6.05300        0.09000
O          5.01300        6.58200        1.20000
N          3.95800        5.33400       -0.30400
H          4.02000        4.82400       -1.17500
H          3.16000        5.25600        0.30300
