64
0 1
H          2.78400        8.53900        9.31200
C          2.12300        7.74400        9.65400
H          1.24700        7.68500        9.01100
H          1.81000        7.94500       10.67800
C          2.86300        6.42800        9.61600
O          3.03000        5.78600       10.64600
N          3.30900        6.03000        8.42600
H          3.16100        6.63600        7.63700
C          4.11700        4.82400        8.21800
H          3.67800        4.01100        8.79600
C          4.06100        4.42100        6.73700
H          3.03500        4.15300        6.48300
H          4.33300        5.28500        6.12800
C          4.97500        3.26600        6.36500
C          4.56700        1.93700        6.59200
H          3.59700        1.73400        7.02900
C          5.41800        0.86800        6.24800
H          5.10100       -0.15300        6.40400
C          6.68700        1.12600        5.69000
O          7.52500        0.10100        5.39000
H          7.32300       -0.68800        5.91400
C          7.10200        2.45600        5.47800
H          8.07700        2.64300        5.05300
C          6.24600        3.52400        5.81300
H          6.56900        4.54400        5.64700
C          5.57500        5.00100        8.67800
O          6.17900        6.05200        8.47100
N          6.15800        3.95000        9.25800
H          5.56200        3.16100        9.48600
C          7.61200        3.78200        9.44200
H          8.10100        4.17400        8.54900
C          8.13200        4.60600       10.64400
H          9.21600        4.48500       10.67400
H          7.96000        5.66600       10.46200
C          7.59100        4.22000       12.03900
H          7.63500        3.13800       12.16200
H          8.25500        4.66400       12.78100
C          6.17600        4.70000       12.37100
O          5.49000        4.12200       13.19900
N          5.66300        5.73300       11.74000
H          4.67000        5.88900       11.85900
H          6.17400        6.18700       11.00200
C          8.01000        2.29100        9.52000
O          9.06900        1.93300       10.03100
N          7.12800        1.39900        9.06400
H          6.30800        1.74500        8.58500
C          7.12500       -0.02400        9.41100
H          7.65100       -0.14400       10.35900
C          5.67000       -0.47300        9.64400
H          5.16000       -0.58500        8.68900
H          5.66700       -1.44300       10.14200
C          4.88800        0.51900       10.47400
N          4.17300        1.60900        9.96100
C          3.79900        2.33600       11.02700
H          3.25700        3.27400       10.98300
N          4.28300        1.79500       12.15400
H          4.31000        2.28500       13.04500
C          4.97500        0.65100       11.82800
H          5.55100        0.02700       12.49700
C          7.90000       -0.85300        8.37900
O          7.33600       -1.61800        7.60200
N          9.20600       -0.64700        8.30300
H          9.63400        0.04500        8.90300
H          9.73700       -1.14200        7.60600
