67
0 1
H         12.84200        6.45200        4.37500
C         11.80600        6.42800        4.70600
H         11.66300        7.14100        5.51600
H         11.55400        5.42800        5.05600
C         10.90200        6.79600        3.55500
O         10.19300        7.79600        3.62400
N         10.92800        5.99500        2.49000
H         11.50900        5.17400        2.53800
C         10.11600        6.18500        1.28000
H         10.05500        7.25600        1.08800
C         10.83300        5.55200        0.07300
H         11.83600        5.97400       -0.00100
H         10.93600        4.47900        0.24600
C         10.12600        5.78300       -1.25300
C          9.60800        4.69700       -1.98500
H          9.74500        3.68700       -1.62400
C          8.86600        4.92600       -3.16000
H          8.44100        4.10200       -3.71200
C          8.62400        6.24600       -3.59200
O          7.78500        6.47200       -4.63500
H          7.26700        7.27100       -4.48600
C          9.17000        7.33300       -2.87800
H          8.98400        8.34100       -3.21400
C          9.93400        7.09700       -1.72000
H         10.35000        7.92900       -1.17100
C          8.66300        5.69800        1.47200
O          8.18400        4.78100        0.80900
N          7.93600        6.30800        2.41100
H          8.38100        7.06500        2.91600
C          6.55500        5.93500        2.77500
H          6.48900        4.84600        2.73200
C          6.26200        6.35600        4.23100
H          6.09800        7.43400        4.26500
H          5.33700        5.86900        4.54600
C          7.36700        6.00700        5.24800
H          8.18600        6.71900        5.14700
H          6.95800        6.10900        6.25200
C          7.93300        4.59700        5.09400
O          9.11000        4.33400        4.89600
O          7.02800        3.60000        5.13100
H          7.52900        2.79300        5.00100
C          5.48800        6.45600        1.78100
O          4.35600        6.74000        2.16300
N          5.87500        6.66200        0.51900
H          6.80800        6.35400        0.28100
C          5.14600        7.43200       -0.50200
H          4.09100        7.16000       -0.45200
C          5.25500        8.94500       -0.19800
H          5.01200        9.53000       -1.08500
H          4.49300        9.18700        0.54400
C          6.59900        9.38900        0.35600
C          7.67100        9.67200       -0.51100
H          7.51600        9.64500       -1.58200
C          8.94400        9.96200        0.01700
H          9.77800       10.17200       -0.63700
C          9.15000        9.93900        1.41100
O         10.40100       10.06800        1.91800
H         10.47800        9.56100        2.73700
C          8.06700        9.69900        2.28100
H          8.22600        9.70200        3.34900
C          6.79000        9.44400        1.75200
H          5.95800        9.24700        2.41600
C          5.62500        7.03900       -1.91800
O          5.84900        7.86400       -2.80100
N          5.84600        5.75100       -2.14800
H          6.21900        5.48200       -3.04500
H          5.70900        5.07600       -1.41300
