61
0 1
H         10.40300       11.50900       -7.75400
C         10.85200       12.24600       -7.09200
H         10.81300       13.22900       -7.56000
H         11.88800       11.98100       -6.88400
C         10.08100       12.29300       -5.79500
O          9.55900       13.33400       -5.42500
N         10.00700       11.16500       -5.09500
H         10.50100       10.35700       -5.43400
C          9.38300       11.09000       -3.77000
H          8.38200       11.51000       -3.84700
C          9.25800        9.61000       -3.37000
H          8.67400        9.08900       -4.13000
H         10.25400        9.16200       -3.35900
C          8.61200        9.37800       -2.01700
C          7.21500        9.21500       -1.92200
H          6.60700        9.22600       -2.81600
C          6.60700        9.05700       -0.66200
H          5.53600        8.94200       -0.59000
C          7.39900        9.05700        0.50700
O          6.82000        8.91700        1.72800
H          5.87400        8.78600        1.66700
C          8.79700        9.21000        0.41000
H          9.39200        9.20800        1.31100
C          9.40300        9.36700       -0.85100
H         10.47600        9.49500       -0.92100
C         10.19000       11.89000       -2.71900
O         11.42000       11.81100       -2.73800
N          9.54900       12.59700       -1.76200
C         10.25800       13.18800       -0.63400
H         11.03900       13.87100       -0.96700
H         10.69800       12.39000       -0.03300
C          9.20900       13.93100        0.19000
H          9.10700       14.95300       -0.17700
H          9.45100       13.92500        1.25300
C          7.93700       13.14000       -0.10900
H          7.03900       13.73100        0.07600
H          7.92200       12.23300        0.49800
C          8.09900       12.76300       -1.58500
H          7.57600       11.82500       -1.75600
C          7.45000       13.83000       -2.48600
O          6.23500       13.81100       -2.65500
N          8.22700       14.75000       -3.06300
H          9.22800       14.65400       -2.95100
C          7.77000       15.90000       -3.86400
H          6.88800       16.30700       -3.36800
C          8.84800       17.00500       -3.83800
H          8.49700       17.84900       -4.43300
H          8.97200       17.36200       -2.81500
C         10.21800       16.56300       -4.37500
H         10.07100       15.91600       -5.24100
H         10.75600       17.44900       -4.71200
S         11.26100       15.71500       -3.15300
C         12.49500       14.97200       -4.24900
H         13.03600       15.75700       -4.77900
H         13.19500       14.38200       -3.65800
H         12.00000       14.32200       -4.97000
C          7.30500       15.54400       -5.29600
O          7.53400       16.28300       -6.24800
N          6.63000       14.41900       -5.48600
H          6.40300       13.84300       -4.68900
H          6.34900       14.17900       -6.42100
