64
0 1
H          0.02300        7.67700       -6.30900
C          1.07500        7.79800       -6.05600
H          1.59400        8.29000       -6.87700
H          1.51900        6.82300       -5.86600
C          1.18500        8.64900       -4.81300
O          0.17600        9.07500       -4.26700
N          2.41400        8.90300       -4.37000
H          3.20000        8.54500       -4.89100
C          2.71400        9.71500       -3.18700
H          1.95100       10.49000       -3.09800
C          2.64600        8.83400       -1.92800
H          1.62300        8.47700       -1.79700
H          3.28500        7.96200       -2.07400
C          3.07200        9.55700       -0.66700
C          4.28700        9.22000       -0.03900
H          4.87700        8.38800       -0.40100
C          4.73300        9.96600        1.06700
H          5.64900        9.70400        1.57200
C          3.97500       11.05700        1.53700
O          4.44700       11.81000        2.56100
H          5.41100       11.73600        2.61200
C          2.75000       11.38200        0.92000
H          2.17200       12.21100        1.30200
C          2.29500       10.62600       -0.17700
H          1.35100       10.87100       -0.64800
C          4.07300       10.42300       -3.32300
O          4.96300        9.93300       -4.01700
N          4.24200       11.56800       -2.64500
H          3.49600       11.85500       -2.02800
C          5.39800       12.47200       -2.77500
H          5.43000       12.84600       -3.79900
C          5.19000       13.66200       -1.81500
H          4.20200       14.08500       -1.99700
H          5.20400       13.29000       -0.78900
C          6.18400       14.80200       -1.91400
N          6.33900       15.80200       -0.94800
C          7.25200       16.65600       -1.43400
H          7.58900       17.55000       -0.92500
N          7.68000       16.24600       -2.63800
H          8.36700       16.71800       -3.21000
C          7.01000       15.08900       -2.96400
H          7.11600       14.51500       -3.87500
C          6.75300       11.79600       -2.51100
O          7.74000       12.14700       -3.15200
N          6.80700       10.82400       -1.59600
H          5.96100       10.60600       -1.09000
C          8.04600       10.12400       -1.20800
H          8.88200       10.58500       -1.73600
C          8.32400       10.31200        0.29800
H          7.73100        9.59300        0.86100
H          9.37300       10.08700        0.49200
C          8.02700       11.70100        0.82400
N          7.29800       11.98900        1.98200
C          7.14600       13.32400        1.99700
H          6.57800       13.87100        2.73900
N          7.72100       13.87500        0.91700
H          7.58200       14.83200        0.60500
C          8.30300       12.87200        0.17900
H          8.79500       12.97500       -0.78000
C          8.06500        8.65200       -1.65400
O          8.80700        7.84000       -1.11800
N          7.23600        8.26600       -2.61800
H          7.26200        7.30400       -2.91100
H          6.64000        8.94100       -3.07700
