63
0 1
H          3.87400        5.93400        9.91600
C          4.88000        5.54900       10.06700
H          4.94400        4.52200        9.71200
H          5.13100        5.58400       11.12700
C          5.86400        6.40400        9.30400
O          6.75700        6.99300        9.89800
N          5.69600        6.47200        7.98500
H          4.92800        5.96600        7.56900
C          6.55400        7.24000        7.07800
H          6.92900        8.11900        7.60500
C          7.76100        6.37700        6.67200
H          8.42000        6.26600        7.53500
H          7.40100        5.38100        6.40800
C          8.57000        6.92200        5.51000
C          9.23500        8.15900        5.62700
H          9.20300        8.70500        6.56100
C          9.93200        8.69100        4.52500
H         10.43300        9.64400        4.59300
C          9.98100        7.97800        3.31000
O         10.59800        8.51700        2.22900
H         10.22900        8.15900        1.40800
C          9.34900        6.72100        3.20700
H          9.40800        6.16700        2.28100
C          8.63500        6.20100        4.30200
H          8.13900        5.24300        4.21200
C          5.76100        7.72900        5.85700
O          4.95700        6.99300        5.29100
N          5.99600        8.97400        5.43600
H          6.68900        9.50900        5.94900
C          5.24000        9.68800        4.39600
H          4.18600        9.46500        4.56800
C          5.41300       11.21100        4.59300
H          4.67300       11.70600        3.96300
H          5.16900       11.47300        5.62400
C          6.79400       11.80000        4.22900
H          7.15300       11.38400        3.28900
H          6.67300       12.87300        4.08000
C          7.87400       11.61600        5.29600
O          7.75600       10.98200        6.33600
O          9.04500       12.21800        5.02100
H          9.61500       12.04400        5.77100
C          5.52000        9.24800        2.93800
O          5.17400        9.97900        2.01300
N          6.15700        8.09000        2.72500
H          6.34000        7.53300        3.54800
C          6.61300        7.52100        1.44100
H          7.10700        6.58400        1.69300
C          5.40500        7.13400        0.56700
H          4.70600        6.54100        1.16000
H          4.89200        8.03700        0.23400
C          5.80500        6.32100       -0.67000
H          4.91600        6.17400       -1.28400
H          6.52400        6.89200       -1.25900
S          6.50900        4.69100       -0.30000
C          6.98200        4.17900       -1.97200
H          7.43200        3.18600       -1.93300
H          6.10000        4.15000       -2.61100
H          7.70600        4.88500       -2.38000
C          7.67200        8.34500        0.67600
O          8.70800        7.81500        0.28500
N          7.48600        9.64100        0.47900
H          8.19400       10.16700       -0.00600
H          6.63300       10.07300        0.81000
