59
0 1
H         13.24100       11.79300       -4.25600
C         12.74300       11.69000       -3.29300
H         12.89300       12.59300       -2.70600
H         13.14800       10.83000       -2.76300
C         11.26500       11.48200       -3.52600
O         10.82100       11.45500       -4.66600
N         10.50700       11.34400       -2.44100
H         10.94400       11.40600       -1.53400
C          9.05800       11.13200       -2.45700
H          8.64800       11.61400       -3.34600
C          8.79100        9.62300       -2.55200
H          9.20000        9.11500       -1.67700
H          7.71900        9.43500       -2.60000
H          9.25500        9.22100       -3.45300
C          8.40000       11.75100       -1.20300
O          9.05800       11.82900       -0.16100
N          7.12100       12.17700       -1.25500
C          6.26900       12.16400       -2.44000
H          6.20400       11.16900       -2.88000
H          6.66000       12.87100       -3.17300
C          4.88800       12.62400       -1.97500
H          4.31100       11.76700       -1.62200
H          4.35200       13.15500       -2.76200
C          5.23100       13.53900       -0.80100
H          4.37900       13.69700       -0.13900
H          5.58300       14.49900       -1.18200
C          6.39800       12.79700       -0.13400
H          7.04400       13.52600        0.35600
C          5.95400       11.77400        0.93900
O          4.79000       11.73300        1.33700
N          6.86200       10.89700        1.37700
H          7.80700       11.00400        1.02600
C          6.59100        9.75200        2.25900
H          7.53400        9.35800        2.63700
H          5.99100       10.08700        3.10600
C          5.83900        8.61500        1.55700
O          6.30900        7.48100        1.53500
N          4.70200        8.92700        0.93200
H          4.40400        9.89500        0.98300
C          4.01000        8.04500       -0.00700
H          3.99200        7.03600        0.40800
C          2.56200        8.53000       -0.21400
H          2.59800        9.52100       -0.66900
H          2.07000        7.85900       -0.91900
C          1.70700        8.61400        1.06600
H          2.16600        9.30800        1.77000
C          0.31600        9.14300        0.71500
H         -0.18400        8.46400        0.02500
H         -0.28000        9.23900        1.62300
H          0.40400       10.12700        0.25400
C          1.54100        7.25400        1.74700
H          1.11800        6.53200        1.04900
H          2.50600        6.89600        2.10500
H          0.87700        7.35400        2.60600
C          4.76400        7.98600       -1.34600
O          5.22800        8.99900       -1.86200
N          4.86100        6.81200       -1.95300
H          5.35300        6.77100       -2.83000
H          4.49400        5.98500       -1.51500
