59
0 1
H          9.46100       11.63700        1.64600
C          9.63900       12.57100        1.11500
H         10.45400       12.43100        0.40500
H          9.90200       13.35700        1.82000
C          8.39300       12.96200        0.35900
O          8.42800       13.09000       -0.85700
N          7.30000       13.19100        1.08800
H          7.37300       13.07600        2.08500
C          5.96200       13.44100        0.53700
H          5.59900       12.49200        0.13900
C          5.03300       13.83100        1.69400
H          4.01800       13.96400        1.31500
H          5.02200       13.04100        2.44600
H          5.36400       14.76300        2.15300
C          5.86600       14.45300       -0.63600
O          5.20000       14.11900       -1.61600
N          6.51000       15.64500       -0.62700
C          7.29000       16.25400        0.44500
H          8.00700       15.56900        0.89000
H          6.61400       16.64100        1.20900
C          8.04900       17.40900       -0.20200
H          8.96800       17.03700       -0.65600
H          8.26500       18.20400        0.51300
C          7.08700       17.87200       -1.29300
H          7.60800       18.39300       -2.09700
H          6.32700       18.52000       -0.85500
C          6.43200       16.57000       -1.76700
H          5.38400       16.77100       -1.99500
C          7.08100       16.03800       -3.05900
O          6.80300       16.56800       -4.13000
N          7.89300       14.97400       -2.99500
H          8.05900       14.53600       -2.09600
C          8.43700       14.29200       -4.17500
H          8.94200       15.02000       -4.81000
H          9.16600       13.55300       -3.84500
C          7.38600       13.56700       -5.02700
O          7.68200       13.19800       -6.15900
N          6.16000       13.38700       -4.51700
H          5.98700       13.68900       -3.56700
C          5.01300       12.88100       -5.28300
H          5.36300       12.12400       -5.98700
C          4.00000       12.21900       -4.32300
H          3.81500       12.87800       -3.47500
H          3.05600       12.11600       -4.85900
C          4.37900       10.81100       -3.81800
H          4.54400       10.16000       -4.67700
C          5.62200       10.76000       -2.92400
H          5.52500       11.47600       -2.10900
H          5.74400        9.75700       -2.51500
H          6.50900       10.99000       -3.51000
C          3.21200       10.24200       -3.00600
H          2.31400       10.21800       -3.62400
H          3.44200        9.22600       -2.68900
H          3.02900       10.86500       -2.13000
C          4.33900       13.97900       -6.13900
O          3.40900       13.69900       -6.88700
N          4.76100       15.23600       -6.05400
H          4.31500       15.92800       -6.62900
H          5.53000       15.47900       -5.44400
