95
3 1
H          9.88300        5.47000        5.67800
C          9.37800        5.89800        6.54300
H          9.70300        5.38200        7.44600
H          8.30100        5.78000        6.43100
C          9.71300        7.36500        6.65400
O          8.82400        8.21200        6.60300
N         10.99800        7.68200        6.79500
H         11.67800        6.93600        6.82800
C         11.48700        9.05500        6.97200
H         10.92400        9.51900        7.78500
C         12.96300        8.99500        7.40500
H         13.35800       10.00800        7.50000
H         13.02900        8.51100        8.38200
S         13.96700        8.05600        6.21100
H         15.12100        8.07600        6.89400
C         11.27400        9.94200        5.72600
O         10.74000       11.04600        5.84600
N         11.61400        9.45500        4.52700
H         12.04200        8.54000        4.51200
C         11.59500       10.22700        3.27600
H         12.27200       11.07500        3.38800
H         11.97600        9.60400        2.46700
C         10.21400       10.75800        2.85700
O          9.18000       10.16900        3.17800
N         10.19400       11.89000        2.13700
H         11.08600       12.30200        1.89500
C          8.98900       12.58100        1.62800
H          8.19100       11.84900        1.50500
C          8.52600       13.68200        2.61600
H          9.31600       14.43300        2.68200
H          7.64300       14.17600        2.20800
C          8.20000       13.22300        4.05100
H          9.07400       12.72200        4.46500
H          8.02200       14.10700        4.66400
C          6.95900       12.31500        4.15200
H          6.06600       12.93000        4.02900
H          6.96400       11.57500        3.35200
C          6.86600       11.57100        5.49400
H          6.86700       12.29100        6.31700
H          5.91600       11.02900        5.51900
N          7.98300       10.60900        5.64800
H          8.86300       11.07300        5.85600
H          7.83300        9.90300        6.36600
H          8.15700       10.10400        4.78200
C          9.26900       13.19400        0.24800
O         10.40800       13.54800       -0.05100
N          8.23700       13.35600       -0.59300
H          7.32500       13.08500       -0.25700
C          8.33000       13.91900       -1.96200
H          9.20500       13.48900       -2.45600
C          7.07900       13.52600       -2.78800
H          6.18200       13.85500       -2.26000
H          7.11700       14.04900       -3.74500
C          6.97600       12.01600       -3.07800
H          7.85100       11.69200       -3.64300
H          6.96300       11.47400       -2.13200
C          5.70100       11.63700       -3.85600
H          5.63000       10.54700       -3.87100
H          4.83200       12.02900       -3.32200
N          5.69600       12.13500       -5.24900
H          6.47700       12.70000       -5.53800
C          4.77100       11.89300       -6.16700
N          3.71400       11.17000       -5.92000
H          3.03000       10.99800       -6.63500
H          3.58800       10.77400       -5.00600
N          4.89000       12.37800       -7.37100
H          4.18500       12.18600       -8.06300
H          5.68400       12.93600       -7.62900
C          8.56200       15.44600       -1.95800
O          7.69200       16.20500       -2.37100
N          9.72600       15.90500       -1.47800
H         10.36500       15.20300       -1.11700
C         10.11400       17.33000       -1.34200
H          9.24300       17.86200       -0.95100
C         11.25200       17.44700       -0.29300
H         11.12600       16.64000        0.43100
H         12.22200       17.28700       -0.76200
C         11.25900       18.75200        0.53300
H         10.29200       18.81400        1.03500
H         12.01000       18.65400        1.31800
C         11.48900       20.10100       -0.18100
H         10.88600       20.16500       -1.08500
H         11.10900       20.87600        0.48800
C         12.95200       20.47900       -0.48400
H         12.95300       21.51400       -0.84100
H         13.52800       20.45700        0.44700
N         13.59200       19.61500       -1.50700
H         12.95400       19.46200       -2.28900
H         14.44300       20.03400       -1.85900
H         13.80700       18.70500       -1.12800
C         10.44200       17.99100       -2.69800
O         11.55500       18.46000       -2.91800
N          9.50200       18.02700       -3.62600
H          9.70500       18.46000       -4.51300
H          8.59100       17.63200       -3.42700
