95
3 1
H         14.48100       19.43400       -1.65200
C         13.71800       19.94500       -2.24000
H         13.80000       19.63400       -3.28100
H         13.86900       21.02100       -2.16800
C         12.35400       19.58000       -1.70900
O         12.24100       18.79500       -0.77400
N         11.30000       20.16100       -2.28800
H         11.47700       20.78200       -3.06500
C          9.90000       19.86300       -1.93900
H          9.27800       20.62000       -2.42100
C          9.54400       18.50600       -2.58000
H          9.87100       18.50000       -3.62300
H         10.08500       17.71500       -2.05800
S          7.76100       18.15600       -2.53900
H          7.38500       18.96900       -3.53900
C          9.60700       19.99000       -0.41500
O          8.84200       19.21600        0.16600
N         10.29000       20.92400        0.26200
H         10.92300       21.50400       -0.26900
C         10.20700       21.17100        1.70900
H         10.52800       22.19500        1.90200
H          9.16400       21.08500        2.01800
C         11.04000       20.24300        2.61300
O         11.14200       20.51500        3.81600
N         11.65000       19.17600        2.07500
H         11.62600       19.07900        1.06400
C         12.53600       18.25700        2.81600
H         12.08600       18.06200        3.79000
C         12.68800       16.90300        2.08200
H         13.06700       17.05800        1.07100
H         13.43400       16.31500        2.62000
C         11.39300       16.06200        2.04300
H         11.66400       15.00600        2.00100
H         10.84200       16.22500        2.97100
C         10.48400       16.36300        0.84000
H         10.45700       17.43200        0.67900
H         10.90000       15.90000       -0.05700
C          9.05200       15.86300        1.07900
H          9.03200       14.77200        0.99100
H          8.76500       16.12300        2.10200
N          8.08900       16.48500        0.13500
H          7.13600       16.22400        0.34600
H          8.15500       17.50400        0.17900
H          8.28400       16.23000       -0.82500
C         13.89400       18.92200        3.09000
O         14.27000       19.88500        2.42600
N         14.60900       18.44800        4.11700
H         14.26800       17.62100        4.58900
C         15.84200       19.06700        4.64800
H         16.43600       19.42000        3.80200
C         15.46000       20.29100        5.50900
H         16.36800       20.80300        5.83000
H         14.90600       20.98800        4.87700
C         14.61300       19.95600        6.75600
H         13.90600       19.15400        6.54200
H         15.28100       19.60900        7.54500
C         13.82100       21.16800        7.27300
H         13.47400       20.93600        8.28200
H         14.48200       22.03600        7.32500
N         12.65000       21.46800        6.42000
H         12.54600       20.94700        5.56000
C         11.68100       22.32800        6.67800
N         10.67600       22.41800        5.85900
H         10.65400       21.79500        5.05700
H          9.92200       23.05500        6.03300
N         11.68100       23.09700        7.73200
H         12.44900       23.04600        8.37600
H         10.92700       23.73900        7.89800
C         16.68800       18.04600        5.41800
O         16.12600       17.14400        6.03000
N         18.02200       18.18700        5.40200
H         18.39300       18.96800        4.88300
C         18.99200       17.21200        5.96100
H         18.61700       16.21700        5.70900
C         20.36100       17.34700        5.25800
H         20.98700       16.52800        5.61100
H         20.23000       17.19900        4.18400
C         21.07500       18.69800        5.48500
H         20.71100       19.41000        4.74300
H         20.82100       19.10800        6.46200
C         22.61100       18.61900        5.37900
H         22.87300       18.32900        4.36000
H         23.01700       19.62000        5.54400
C         23.30000       17.64000        6.35200
H         23.03100       16.61700        6.07200
H         24.38300       17.73500        6.21900
N         22.94600       17.87600        7.77700
H         21.94900       17.71700        7.93100
H         23.44500       17.23500        8.38100
H         23.16900       18.82100        8.05900
C         19.10500       17.19400        7.50300
O         20.20200       17.28800        8.05400
N         17.99500       17.11600        8.21700
H         18.06400       17.08500        9.22100
H         17.10900       17.00000        7.74400
