95
3 1
H         12.86700       10.48800        4.41500
C         12.14200       10.51400        5.22800
H         12.57100       11.02800        6.08500
H         11.88500        9.49200        5.50800
C         10.89800       11.23100        4.76300
O         10.81500       11.64200        3.61100
N          9.93500       11.41200        5.66700
H         10.08900       11.05800        6.59900
C          8.61500       11.98800        5.37600
H          8.06800       11.26800        4.76400
C          7.84000       12.13900        6.70000
H          6.90000       12.66500        6.51700
H          7.59800       11.14500        7.08300
S          8.80200       13.03100        7.96600
H          7.93200       12.86000        8.97600
C          8.69700       13.30500        4.56900
O          9.25800       14.30300        5.02900
N          8.17400       13.28500        3.33600
H          7.75000       12.42400        3.02400
C          8.18200       14.40200        2.37600
H          7.49300       14.17200        1.56300
H          7.81000       15.29500        2.88000
C          9.54300       14.76100        1.75000
O          9.59400       15.52300        0.78900
N         10.66400       14.21700        2.23900
H         10.56000       13.48400        2.93500
C         12.03700       14.69400        1.95900
H         11.99100       15.77500        1.81700
C         12.91200       14.43400        3.20500
H         12.84000       13.38000        3.47700
H         13.95700       14.65700        2.98500
C         12.46800       15.32600        4.38400
H         12.91000       16.31500        4.26100
H         11.38900       15.45400        4.36700
C         12.86500       14.76200        5.75800
H         12.52400       13.73000        5.85200
H         13.95400       14.77500        5.83900
C         12.26700       15.61000        6.89300
H         12.78300       15.36300        7.82700
H         12.46500       16.66400        6.67600
N         10.80500       15.38800        7.05900
H         10.38700       16.08500        7.66100
H         10.31700       15.39500        6.16400
H         10.60800       14.47600        7.45500
C         12.61600       14.14800        0.63900
O         13.78600       13.78200        0.55400
N         11.80400       14.12100       -0.42700
H         10.88200       14.52300       -0.27800
C         12.07800       13.46400       -1.72900
H         12.35100       12.43400       -1.49800
C         10.78800       13.46100       -2.58600
H         10.01200       14.04700       -2.08800
H         10.97400       13.95800       -3.53900
C         10.20400       12.06100       -2.86800
H          9.88100       11.62200       -1.92200
H          9.31700       12.18500       -3.49200
C         11.15000       11.06400       -3.56400
H         11.94800       10.79100       -2.87200
H         10.59700       10.15000       -3.78500
N         11.76100       11.61700       -4.78900
H         12.55000       12.23700       -4.63500
C         11.42400       11.39200       -6.04700
N         12.09800       11.95400       -7.00900
H         11.85300       11.78200       -7.96800
H         12.88200       12.54400       -6.79000
N         10.42800       10.62000       -6.38400
H          9.89600       10.16400       -5.66500
H         10.20200       10.46100       -7.35000
C         13.27900       14.00700       -2.53300
O         13.59300       13.44200       -3.58100
N         13.95500       15.06300       -2.06300
H         13.61600       15.45900       -1.20000
C         15.24500       15.55800       -2.58700
H         15.20700       15.51100       -3.67600
C         15.40400       17.03800       -2.16000
H         14.61200       17.62300       -2.63100
H         15.26000       17.10300       -1.07900
C         16.75800       17.70400       -2.48000
H         16.73500       18.72500       -2.09800
H         17.54100       17.18700       -1.92600
C         17.12000       17.76400       -3.97800
H         16.75300       16.88600       -4.51000
H         16.64000       18.64300       -4.41200
C         18.64100       17.87200       -4.17000
H         18.84600       18.29700       -5.15800
H         19.03600       18.56600       -3.42200
N         19.30200       16.54400       -4.05000
H         19.14200       15.98800       -4.87900
H         20.30000       16.63900       -3.91300
H         18.90400       16.01100       -3.27700
C         16.44700       14.68800       -2.16500
O         17.51400       14.79300       -2.76900
N         16.31800       13.84100       -1.15300
H         15.45000       13.78100       -0.63900
H         17.10800       13.27200       -0.89600
