76
1 1
H          4.66800       13.53100       -5.65000
C          5.29500       13.81300       -4.80600
H          4.66900       14.00400       -3.93500
H          5.85700       14.71200       -5.05300
C          6.25300       12.68800       -4.49800
O          6.21500       12.12900       -3.40700
N          7.11300       12.36000       -5.46000
H          7.03300       12.84500       -6.34000
C          8.07800       11.25300       -5.40800
H          7.57500       10.39000       -4.96900
C          8.47500       10.87600       -6.84600
H          9.02000       11.70200       -7.30800
H          9.13300       10.00400       -6.82100
S          6.99500       10.48700       -7.82800
H          7.62300       10.11700       -8.95100
C          9.30700       11.54500       -4.51700
O         10.45000       11.48200       -4.96500
N          9.08600       11.86900       -3.24300
H          8.11900       11.85500       -2.93200
C         10.11500       12.11500       -2.22300
H         10.89800       12.73300       -2.66600
C          9.42500       12.91700       -1.09900
H          9.07400       13.86500       -1.50600
H          8.55700       12.35700       -0.75400
C         10.29700       13.22500        0.10700
O          9.95000       12.90900        1.23700
N         11.44200       13.84000       -0.07400
H         11.98400       14.03400        0.75100
H         11.73200       14.14600       -0.98400
C         10.79000       10.79600       -1.76300
O         10.72800       10.41600       -0.59500
N         11.35300       10.02400       -2.69800
H         11.36200       10.38500       -3.64800
C         11.77700        8.62500       -2.50400
H         12.41700        8.32300       -3.33400
H         12.35000        8.54500       -1.58000
C         10.59300        7.64900       -2.42600
O         10.59000        6.62000       -3.09200
N          9.53500        8.03200       -1.70200
H          9.64300        8.90400       -1.19300
C          8.16300        7.51600       -1.83300
H          8.06700        7.10800       -2.84200
C          7.92000        6.34100       -0.85700
H          7.14500        5.71000       -1.29400
H          8.82500        5.73000       -0.82700
C          7.48700        6.62700        0.59600
H          6.45000        6.96500        0.60400
H          7.51000        5.67400        1.12700
C          8.35400        7.61800        1.38800
H          8.41300        7.27300        2.42200
H          9.36400        7.63400        0.97500
N          7.76000        8.96600        1.38700
H          6.79300        9.05500        1.09600
C          8.34200       10.11000        1.67900
N          7.66400       11.20900        1.57700
H          6.71700       11.15300        1.23000
H          8.15400       12.08300        1.70200
N          9.57900       10.21200        2.05800
H         10.16800        9.40600        2.02300
H          9.99000       11.13800        2.03600
C          7.16400        8.67500       -1.74700
O          7.57600        9.82300       -1.58700
N          5.86800        8.39700       -1.86100
H          5.59400        7.44300       -2.04200
C          4.81200        9.41600       -1.90400
H          4.94700        9.99800       -2.81700
C          3.44900        8.71200       -1.98800
H          3.25400        8.17400       -1.05800
H          2.66200        9.45500       -2.13400
S          3.43700        7.54300       -3.38000
H          2.15300        7.16800       -3.29300
C          4.84900       10.40700       -0.71800
O          5.27900       10.08000        0.39100
N          4.37800       11.62900       -0.92000
H          4.10200       11.91200       -1.84800
H          4.36400       12.28200       -0.15400
