76
1 1
H         11.26400       14.29400        4.61300
C         10.76000       13.37000        4.89600
H         10.16400       13.54100        5.79200
H         11.49900       12.59700        5.09700
C          9.85500       12.92400        3.77400
O          8.64700       12.82900        3.95100
N         10.43100       12.64000        2.60900
H         11.43300       12.74200        2.53300
C          9.72600       12.16300        1.41100
H          8.74000       12.63000        1.38400
C         10.50100       12.64600        0.17500
H          9.97300       12.34100       -0.73100
H         10.57100       13.73400        0.19000
S         12.17400       11.93800        0.16600
H         11.80200       10.69800       -0.18600
C          9.47300       10.63700        1.40600
O          9.51200        9.99200        0.35800
N          9.26000       10.02000        2.57300
H          9.17700       10.58200        3.41200
C          9.06300        8.57300        2.69400
H          9.89600        8.08500        2.18400
C          9.13100        8.13800        4.17500
H          8.97200        7.06100        4.22900
H         10.13100        8.33900        4.55700
C          8.14500        8.83700        5.10000
O          8.06100       10.05300        5.15500
N          7.36700        8.10500        5.86100
H          6.75500        8.59700        6.48900
H          7.41700        7.10300        5.84200
C          7.76900        8.12100        1.98300
O          6.65800        8.41500        2.42500
N          7.92200        7.42400        0.85500
H          8.86100        7.30900        0.50100
C          6.83300        6.87800        0.03400
H          7.24100        6.11700       -0.63200
H          6.10900        6.39400        0.69000
C          6.06600        7.89100       -0.82900
O          5.48000        7.48900       -1.82800
N          6.07100        9.19000       -0.49100
H          6.62300        9.46300        0.31200
C          5.40800       10.25800       -1.26600
H          5.61000       10.04200       -2.31800
C          3.86900       10.18300       -1.08700
H          3.41400       10.61400       -1.98000
H          3.57000        9.13400       -1.08300
C          3.19300       10.85900        0.12200
H          3.11000       11.92900       -0.07400
H          2.17400       10.47400        0.17500
C          3.84600       10.64300        1.49600
H          3.05600       10.48200        2.23200
H          4.47600        9.75300        1.48000
N          4.60900       11.83700        1.89300
H          4.40400       12.69900        1.40300
C          5.56600       11.94300        2.78800
N          6.04100       10.93600        3.45400
H          6.78900       11.06500        4.12800
H          5.80900        9.99300        3.17400
N          6.07800       13.11200        3.00800
H          5.77100       13.88100        2.43400
H          6.91000       13.17300        3.58700
C          6.00800       11.64500       -1.00000
O          6.87300       11.80300       -0.14200
N          5.54400       12.65300       -1.73900
H          4.82800       12.44200       -2.41500
C          6.04500       14.03200       -1.67500
H          7.10200       14.01600       -1.94700
C          5.30000       14.85100       -2.74400
H          5.39300       14.34700       -3.70900
H          4.24100       14.92800       -2.49100
S          6.00700       16.51400       -2.91200
H          5.27400       17.12900       -1.97500
C          5.94900       14.66100       -0.26300
O          5.09500       14.31000        0.55100
N          6.82500       15.60400        0.06100
H          7.49800       15.92000       -0.62100
H          6.75600       16.04900        0.96100
