76
1 1
H          2.76000        9.14400        3.03400
C          2.36900        9.33200        2.03500
H          1.64500       10.14400        2.07200
H          1.87900        8.43200        1.66300
C          3.49900        9.70600        1.10700
O          3.74800        9.00900        0.12700
N          4.20400       10.78800        1.42800
H          3.92800       11.29000        2.25900
C          5.26300       11.38900        0.60700
H          5.60200       10.67600       -0.14700
C          4.65100       12.59200       -0.13200
H          3.76400       12.26900       -0.68000
H          4.36000       13.36000        0.58700
S          5.83500       13.29900       -1.30900
H          6.69400       13.75900       -0.38400
C          6.49300       11.73300        1.47400
O          6.79600       12.89800        1.72300
N          7.15900       10.70800        2.02000
H          6.89000        9.76900        1.76100
C          8.27700       10.84100        2.96500
H          8.02400       11.63100        3.67400
C          8.42700        9.53400        3.77700
H          9.22800        9.66800        4.50300
H          7.51000        9.35300        4.33600
C          8.71400        8.28900        2.94500
O          7.93600        7.89100        2.08900
N          9.81800        7.62100        3.17500
H          9.98200        6.78600        2.64500
H         10.49900        7.98500        3.81900
C          9.58400       11.29000        2.27300
O         10.52500       10.51100        2.13100
N          9.61900       12.53300        1.78600
H          8.77500       13.08800        1.88100
C         10.70200       13.09100        0.96400
H         10.60800       14.17700        0.92800
H         11.66500       12.84000        1.40900
C         10.67500       12.55400       -0.47000
O         10.55400       13.32300       -1.42100
N         10.68500       11.22500       -0.62800
H         10.78200       10.66800        0.21400
C         10.36300       10.55100       -1.89400
H         11.05200       10.93400       -2.64900
C         10.58500        9.03100       -1.78200
H         10.33400        8.57500       -2.74100
H         11.65100        8.85800       -1.62000
C          9.81000        8.32800       -0.64600
H         10.53700        7.88400        0.03500
H          9.22500        9.04400       -0.06800
C          8.88200        7.21100       -1.14500
H          9.43300        6.56800       -1.83300
H          8.59000        6.59600       -0.29200
N          7.67800        7.73900       -1.81800
H          7.76500        8.03200       -2.78000
C          6.48100        7.90300       -1.28600
N          5.49800        8.34800       -2.00100
H          5.69300        8.66600       -2.94400
H          4.61500        8.53900       -1.54500
N          6.19800        7.65400       -0.04400
H          6.93800        7.44400        0.61800
H          5.25300        7.82300        0.26600
C          8.94500       10.90300       -2.35900
O          7.98700       10.79700       -1.59200
N          8.82700       11.29300       -3.62600
H          9.67200       11.39300       -4.16600
C          7.60800       11.83500       -4.22800
H          7.32100       12.72100       -3.65900
C          7.92400       12.27200       -5.66800
H          8.10100       11.38600       -6.28100
H          7.07700       12.81800       -6.08800
S          9.40800       13.32300       -5.72100
H          8.91400       14.39100       -5.08200
C          6.42000       10.85400       -4.20300
O          6.58300        9.63300       -4.19800
N          5.19700       11.36800       -4.22000
H          5.06700       12.36700       -4.19600
H          4.40600       10.74600       -4.25400
