76
1 1
H         14.48000        4.71300       -1.98500
C         14.13600        5.74500       -2.02600
H         14.68600        6.28100       -2.79900
H         14.30400        6.22900       -1.06600
C         12.66400        5.77600       -2.35500
O         12.26800        6.32300       -3.37800
N         11.84000        5.18500       -1.49100
H         12.24600        4.75800       -0.67300
C         10.37700        5.19600       -1.59800
H         10.09300        5.25500       -2.65100
C          9.84500        3.86100       -1.05100
H         10.35300        3.03400       -1.54800
H         10.02800        3.79800        0.02400
S          8.06400        3.73000       -1.36400
H          7.69600        4.66500       -0.47300
C          9.77900        6.44100       -0.90800
O          9.12800        6.34100        0.13100
N         10.06200        7.63400       -1.44200
H         10.62300        7.64100       -2.28300
C          9.68200        8.93500       -0.86700
H          9.88800        8.89900        0.20500
C         10.56400       10.04300       -1.48400
H         10.26600       10.19900       -2.52000
H         10.39700       10.97700       -0.94800
C         12.04600        9.72400       -1.48300
O         12.56100        9.12800       -2.41400
N         12.77400       10.09900       -0.45900
H         13.75800        9.89900       -0.50700
H         12.36900       10.61200        0.30300
C          8.17200        9.24500       -1.01600
O          7.79500       10.21700       -1.67100
N          7.29700        8.38700       -0.48000
H          7.68400        7.59300        0.02000
C          5.84600        8.38900       -0.72500
H          5.35400        7.73700       -0.00300
H          5.45500        9.40000       -0.60600
C          5.50900        7.89400       -2.13600
O          4.86800        6.86000       -2.30500
N          6.05400        8.57100       -3.15400
H          6.58000        9.40200       -2.90000
C          6.21900        8.04400       -4.51500
H          5.22800        7.84800       -4.93000
C          6.91300        9.13300       -5.35900
H          6.25100       10.00100       -5.36300
H          7.83000        9.44400       -4.85600
C          7.21600        8.79200       -6.83300
H          6.35700        8.27900       -7.26700
H          7.34000        9.73300       -7.37200
C          8.48200        7.95100       -7.07700
H          8.31600        6.95100       -6.68800
H          8.63600        7.86000       -8.15500
N          9.68200        8.56400       -6.46900
H          9.78300        9.55800       -6.57100
C         10.58800        7.95600       -5.72000
N         11.49200        8.64400       -5.08500
H         11.54000        9.64000       -5.15000
H         12.09300        8.16900       -4.41600
N         10.63400        6.67100       -5.55800
H          9.92100        6.06900       -5.95400
H         11.31000        6.29600       -4.90600
C          6.98300        6.71600       -4.44400
O          8.07000        6.65000       -3.86900
N          6.39900        5.67000       -5.02500
H          5.48600        5.81100       -5.42800
C          6.80300        4.27400       -4.83900
H          6.70400        4.04200       -3.77800
C          5.82600        3.37400       -5.61300
H          5.99000        3.50500       -6.68500
H          6.00400        2.32700       -5.36300
S          4.10000        3.80500       -5.23000
H          4.08300        3.41600       -3.94900
C          8.25900        3.98000       -5.25000
O          8.82000        4.61800       -6.13900
N          8.88900        2.98900       -4.63500
H          8.43500        2.48100       -3.89200
H          9.82500        2.75800       -4.92900
