91
1 1
H          9.92700       13.19200        1.18600
C          8.91600       13.11000        1.57900
H          8.19900       13.34500        0.79400
H          8.78200       13.79500        2.41500
C          8.67400       11.69800        2.05800
O          7.72500       11.05300        1.62400
N          9.51700       11.21500        2.97000
H         10.25200       11.81300        3.31100
C          9.29500        9.92700        3.63200
H          9.20400        9.15500        2.86600
C         10.50100        9.58600        4.51500
H         11.41100        9.57800        3.91200
H         10.59700       10.32800        5.31100
S         10.24500        7.94300        5.24300
H         11.40300        7.86400        5.91100
C          7.98400        9.97900        4.43400
O          7.83600       10.82600        5.31500
N          7.02100        9.10900        4.08900
H          7.26300        8.43200        3.38000
C          5.60100        9.18500        4.49500
H          5.05900        8.59900        3.75200
C          5.31300        8.44500        5.82600
H          4.24900        8.52700        6.05000
H          5.49200        7.38800        5.61900
C          6.11200        8.75800        7.11000
H          6.02400        7.87900        7.74900
H          7.17300        8.87300        6.89200
C          5.60200        9.94200        7.94500
H          4.51200        9.90000        7.99000
H          5.99800        9.84100        8.95700
N          6.03200       11.23800        7.40600
H          6.65000       11.21600        6.60000
C          5.59900       12.42800        7.76300
N          5.95600       13.48800        7.11300
H          6.39500       13.37000        6.20100
H          5.55700       14.37300        7.38700
N          4.79700       12.62100        8.76900
H          4.46000       13.56200        8.92400
H          4.46400       11.83500        9.28900
C          4.96600       10.57600        4.29800
O          4.21900       11.06400        5.14000
N          5.25200       11.17800        3.13900
H          5.94000       10.72800        2.54900
C          4.84000       12.52900        2.72100
H          5.23900       12.66600        1.71500
C          3.29400       12.59900        2.60900
H          2.85500       11.63700        2.87700
H          2.89800       13.33300        3.31300
C          2.80900       12.92100        1.18500
H          3.22400       12.18300        0.49400
H          1.72100       12.83100        1.16100
C          3.19600       14.33300        0.74600
O          3.74200       14.52900       -0.36000
O          3.03000       15.28800        1.54000
C          5.49200       13.65400        3.56000
O          6.35300       13.40100        4.40400
N          5.15100       14.92500        3.30100
H          4.42300       15.08600        2.60700
C          5.72800       16.11000        3.97300
H          6.69500       15.82400        4.38800
C          6.00700       17.21100        2.92900
H          6.75800       17.89200        3.33500
H          6.44100       16.74000        2.04700
C          4.77300       18.05000        2.53700
H          3.89100       17.41700        2.47600
H          4.58900       18.78000        3.32600
C          4.94800       18.80900        1.20800
H          4.11700       19.50600        1.08800
H          5.86800       19.39500        1.26100
C          5.01400       17.88900       -0.02300
H          5.27600       18.48200       -0.90300
H          5.80800       17.15400        0.13100
N          3.73600       17.18000       -0.25900
H          3.86700       16.33800       -0.82800
H          3.40300       16.72700        0.59700
H          3.00300       17.75400       -0.63900
C          4.91200       16.61300        5.17300
O          5.31900       17.56200        5.83200
N          3.76100       15.99900        5.45600
H          3.48500       15.22900        4.86700
C          2.84800       16.42300        6.51800
H          2.59700       17.47200        6.34900
C          1.55800       15.60200        6.40100
H          0.83900       15.93200        7.15200
H          1.11900       15.73700        5.41100
H          1.77300       14.54300        6.55600
C          3.46700       16.30900        7.92900
O          4.16900       15.34900        8.24800
N          3.18100       17.25700        8.81200
H          3.58500       17.19500        9.73200
H          2.61100       18.04400        8.54800
