91
1 1
H         15.72300        8.71300        2.14700
C         14.97200        8.06400        2.59300
H         15.36700        7.62600        3.50900
H         14.71100        7.26400        1.90100
C         13.73400        8.86100        2.92000
O         13.27300        8.85800        4.05800
N         13.15500        9.52100        1.92000
H         13.54300        9.39800        0.99900
C         11.94400       10.33900        2.06800
H         11.48000       10.11700        3.03000
C         12.33100       11.83000        2.11000
H         11.42200       12.43500        2.12800
H         12.88600       12.03000        3.03000
S         13.35400       12.32400        0.68600
H         14.53800       11.95700        1.19500
C         10.86100       10.01100        1.02300
O          9.80300        9.49600        1.38400
N         11.11800       10.31600       -0.25700
H         12.00700       10.76400       -0.43800
C         10.16200       10.21800       -1.37800
H          9.17200       10.44600       -0.98300
C         10.55000       11.30300       -2.41100
H         10.61300       12.25800       -1.88500
H         11.55200       11.07600       -2.77900
C          9.64600       11.52200       -3.64400
H         10.08500       12.33900       -4.21900
H          9.67100       10.64000       -4.28500
C          8.18300       11.90300       -3.35300
H          8.15700       12.67000       -2.57600
H          7.75400       12.31800       -4.26800
N          7.38900       10.73500       -2.94200
H          7.89900        9.86100       -2.84600
C          6.08900       10.63800       -2.75700
N          5.26200       11.61400       -2.99800
H          4.27900       11.47400       -2.85000
H          5.62000       12.47700       -3.35900
N          5.60300        9.52500       -2.30800
H          4.61500        9.39300       -2.12900
H          6.23800        8.81100       -1.95800
C         10.04800        8.81200       -1.99300
O          9.15400        8.59400       -2.80300
N         10.89700        7.86200       -1.61200
H         11.49800        8.04700       -0.81700
C         10.79200        6.45500       -2.03200
H         10.67200        6.43200       -3.11700
C         12.10400        5.71000       -1.69300
H         12.21700        4.92300       -2.44000
H         12.94600        6.39000       -1.83200
C         12.24900        5.02200       -0.31600
H         11.47500        4.25700       -0.22700
H         13.20900        4.50300       -0.31200
C         12.18800        5.92700        0.92700
O         11.72800        7.09200        0.86000
O         12.51000        5.45700        2.03700
C          9.54800        5.76900       -1.43800
O          8.91800        4.93200       -2.07900
N          9.14800        6.17800       -0.22900
H          9.74300        6.85400        0.24100
C          7.88000        5.78900        0.39700
H          7.77500        4.70600        0.31200
C          7.90800        6.17900        1.88500
H          8.21400        7.22300        1.97200
H          6.90800        6.07500        2.30900
C          8.87200        5.26800        2.66500
H          8.44700        4.26400        2.69200
H          9.82500        5.20100        2.14600
C          9.13100        5.72100        4.11100
H          8.17900        5.76000        4.64200
H          9.74800        4.96300        4.59700
C          9.83000        7.08200        4.25400
H          9.18500        7.87200        3.85700
H          9.97800        7.27100        5.32100
N         11.14200        7.12400        3.57000
H         11.78200        7.81200        3.95500
H         11.63400        6.22900        3.55100
H         11.06700        7.30500        2.56600
C          6.70600        6.43200       -0.34700
O          6.74000        7.62000       -0.66600
N          5.64200        5.66400       -0.59400
H          5.70300        4.68600       -0.36300
C          4.47900        6.11800       -1.36700
H          4.82900        6.48400       -2.33400
C          3.57400        4.90700       -1.62300
H          3.20700        4.49800       -0.68000
H          2.72100        5.21100       -2.23200
H          4.12800        4.13600       -2.16100
C          3.70100        7.27200       -0.69400
O          3.32900        8.24300       -1.34900
N          3.49500        7.22600        0.61700
H          3.80700        6.43200        1.14900
H          2.99200        7.98300        1.05000
