91
1 1
H         18.48400        8.60600        0.05900
C         17.95100        8.90000        0.96200
H         18.66600        9.14300        1.74700
H         17.31600        8.07800        1.29100
C         17.09400       10.10800        0.67000
O         15.87900       10.05000        0.81600
N         17.73000       11.20200        0.25700
H         18.73600       11.16200        0.21800
C         17.12000       12.51100       -0.02500
H         16.42100       12.74900        0.77900
C         18.23100       13.57500        0.00700
H         18.90800       13.42800       -0.83600
H         17.77800       14.56300       -0.07300
S         19.16100       13.47600        1.56700
H         19.87500       14.59900        1.42000
C         16.30200       12.52900       -1.33900
O         16.62300       13.25600       -2.28400
N         15.26500       11.68400       -1.41100
H         15.11600       11.11100       -0.58600
C         14.46200       11.36000       -2.60700
H         15.14400       10.98400       -3.37100
C         13.48000       10.22100       -2.26500
H         13.03000        9.89700       -3.20600
H         14.03900        9.36700       -1.87900
C         12.32000       10.55000       -1.29600
H         11.91100       11.54000       -1.49800
H         11.52600        9.83400       -1.51600
C         12.63000       10.39900        0.20500
H         11.69200       10.17200        0.71500
H         13.30300        9.55100        0.34600
N         13.20000       11.61200        0.82500
H         13.26100       12.46800        0.27600
C         13.64700       11.73500        2.06200
N         14.11500       12.88100        2.45200
H         14.13800       13.62100        1.74300
H         14.46600       13.03500        3.37400
N         13.64600       10.75000        2.91400
H         13.39700        9.84000        2.57500
H         14.03200       10.87300        3.82900
C         13.72500       12.52200       -3.28400
O         13.31800       12.39700       -4.43200
N         13.53100       13.63900       -2.59300
H         13.86700       13.64700       -1.63700
C         12.82400       14.83300       -3.07300
H         11.91800       14.49700       -3.58200
C         12.34600       15.68600       -1.86900
H         11.73400       16.49800       -2.26400
H         11.67800       15.06000       -1.27500
C         13.37800       16.31200       -0.90000
H         13.92500       17.10400       -1.41300
H         12.82700       16.78800       -0.08700
C         14.37500       15.31900       -0.29000
O         13.96500       14.19800        0.09700
O         15.58900       15.61200       -0.27600
C         13.63700       15.60800       -4.13400
O         14.23700       16.64400       -3.84900
N         13.71700       15.07200       -5.35800
H         13.24800       14.18000       -5.50900
C         14.45300       15.63300       -6.50900
H         14.61700       16.69700       -6.34100
C         15.81500       14.92000       -6.69400
H         15.61900       13.88100       -6.96900
H         16.34800       15.38000       -7.52800
C         16.74300       14.91000       -5.46700
H         16.21000       14.43500       -4.64600
H         17.60900       14.28400       -5.68900
C         17.25100       16.30700       -5.05600
H         18.06300       16.59500       -5.72500
H         16.45700       17.04500       -5.16900
C         17.75000       16.36300       -3.60400
H         18.57900       15.66200       -3.47400
H         18.11300       17.37500       -3.40300
N         16.65100       16.03400       -2.67000
H         16.81500       16.24200       -1.68600
H         15.78900       16.50500       -2.93300
H         16.45300       15.03600       -2.68300
C         13.62900       15.50800       -7.79600
O         12.76000       14.64800       -7.89900
N         13.92800       16.34800       -8.78600
H         14.67600       17.00400       -8.64500
C         13.46000       16.14600      -10.15700
H         12.39900       15.89100      -10.13400
C         13.62400       17.45900      -10.93400
H         13.24200       17.33700      -11.94800
H         13.06400       18.25500      -10.44100
H         14.67800       17.73400      -10.98400
C         14.21800       14.98200      -10.82800
O         15.37000       14.70900      -10.50300
N         13.60500       14.30500      -11.78900
H         14.10500       13.54800      -12.22700
H         12.66000       14.53000      -12.05100
