85
1 1
H         14.62900       17.33300       -5.82300
C         14.76800       16.62600       -5.00700
H         14.08300       16.87100       -4.19600
H         15.79500       16.68300       -4.64900
C         14.48200       15.22900       -5.50300
O         13.60100       14.55600       -4.97100
N         15.24500       14.78800       -6.50100
H         15.96600       15.39900       -6.85700
C         15.08700       13.50900       -7.20000
H         14.45000       12.85400       -6.61500
C         14.36300       13.74800       -8.52900
H         14.26000       12.80200       -9.06300
H         13.36900       14.14400       -8.32000
S         15.25300       14.93800       -9.57400
H         16.37300       14.22300       -9.75100
C         16.42300       12.77300       -7.39400
O         17.48100       13.39400       -7.45900
N         16.36300       11.44100       -7.51000
H         15.44500       11.00600       -7.42800
C         17.49900       10.54200       -7.75900
H         18.25600       11.09800       -8.31700
C         18.17700       10.09800       -6.44100
H         19.00100        9.43900       -6.72300
H         18.63700       10.97300       -5.97900
C         17.34900        9.35000       -5.36900
H         16.63200        8.66700       -5.82200
H         18.05500        8.73600       -4.80800
C         16.63900       10.24400       -4.34000
H         16.60900        9.70500       -3.39100
H         17.22300       11.15500       -4.19500
N         15.25100       10.56700       -4.72000
H         14.84000       10.04000       -5.48900
C         14.51100       11.56000       -4.27100
N         13.30500       11.74500       -4.71400
H         12.91300       11.10500       -5.41000
H         12.86600       12.63700       -4.55400
N         14.95900       12.43300       -3.41600
H         15.88300       12.32700       -3.04300
H         14.39700       13.24500       -3.22100
C         17.08600        9.38200       -8.67400
O         16.92600        8.24800       -8.23900
N         16.81300        9.68900       -9.94200
H         16.89500       10.65400      -10.22800
C         16.31300        8.73000      -10.93900
H         16.51100        9.11600      -11.93900
H         16.84300        7.78300      -10.82700
C         14.81000        8.44700      -10.82400
O         14.12800        8.36500      -11.83900
N         14.25500        8.43300       -9.60600
H         14.87700        8.45300       -8.80500
C         12.80400        8.36600       -9.35800
H         12.41800        7.46400       -9.83600
C         12.53800        8.27100       -7.84800
H         11.49400        7.99100       -7.69600
H         13.16000        7.48600       -7.41600
C         12.81100        9.59000       -7.12500
O         13.96100       10.07800       -7.12400
O         11.86000       10.18900       -6.57600
C         12.03100        9.56900       -9.94300
O         10.80600        9.52000      -10.06300
N         12.74700       10.64900      -10.28000
H         13.72800       10.59000      -10.03500
C         12.46700       11.55700      -11.40300
H         11.84000       11.02500      -12.12200
C         11.74800       12.86500      -10.99700
H         12.42500       13.50300      -10.43300
H         11.51400       13.39900      -11.91900
C         10.43000       12.70400      -10.22100
H          9.78000       13.54500      -10.46800
H          9.92000       11.80100      -10.55300
C         10.62700       12.70400       -8.69400
H         11.52400       12.15000       -8.41800
H         10.76300       13.73700       -8.37000
C          9.41100       12.11300       -7.97000
H          9.38000       12.51800       -6.95400
H          8.50100       12.42100       -8.49200
N          9.50300       10.63600       -7.90000
H         10.30200       10.37700       -7.31500
H          8.67300       10.21200       -7.51600
H          9.69800       10.23800       -8.82000
C         13.80400       11.86200      -12.09500
O         14.85600       11.81400      -11.45900
N         13.78300       12.19200      -13.37600
H         12.91400       12.21300      -13.88100
H         14.66000       12.38700      -13.83100
