85
1 1
H          0.61100       10.02800        8.78300
C         -0.08900       10.21800        7.97000
H         -0.19900       11.29200        7.82800
H         -1.05600        9.78200        8.21600
C          0.43500        9.59400        6.69900
O          1.51900        9.01200        6.70000
N         -0.33000        9.72000        5.61500
H         -1.21000       10.20300        5.71200
C         -0.01000        9.17800        4.29000
H          0.05700        8.09300        4.37800
C         -1.15800        9.52000        3.32700
H         -1.21200       10.60500        3.20700
H         -0.98000        9.07500        2.34600
S         -2.74600        8.92600        3.98300
H         -2.59500        7.62200        3.72000
C          1.33500        9.69600        3.74300
O          1.72400       10.83300        4.00000
N          2.04900        8.87000        2.96300
H          1.64400        7.97400        2.73400
C          3.45200        9.10100        2.55600
H          3.92200        9.61500        3.38500
C          4.16600        7.74200        2.36700
H          3.73100        6.99900        3.03800
H          3.98700        7.39900        1.34600
C          5.68800        7.77000        2.61900
H          6.13100        6.93400        2.07600
H          6.10400        8.68600        2.20700
C          6.11800        7.63700        4.09500
H          5.71300        6.71100        4.50400
H          7.20700        7.56700        4.12700
N          5.70800        8.79900        4.90200
H          6.11300        9.70000        4.63500
C          4.66000        8.88700        5.70000
N          4.01900        7.85200        6.16100
H          3.14900        8.02200        6.65500
H          4.38400        6.93300        6.01800
N          4.17200       10.04900        5.99200
H          4.54200       10.84000        5.45800
H          3.26900       10.11000        6.43400
C          3.66600       10.10900        1.41200
O          4.54500        9.93100        0.57200
N          2.88600       11.19200        1.39600
H          2.25500       11.31500        2.17800
C          3.01300       12.28400        0.41900
H          2.83600       11.89600       -0.58500
H          2.26200       13.04200        0.63600
C          4.38900       12.96400        0.43700
O          4.85400       13.43500       -0.59400
N          5.09800       12.90200        1.56800
H          4.66300       12.46600        2.37500
C          6.48000       13.36700        1.75700
H          6.52900       14.42100        1.47700
C          6.83100       13.24900        3.25100
H          7.87400       13.52800        3.41200
H          6.21200       13.95200        3.81200
C          6.58000       11.84100        3.79100
O          7.54400       11.05300        3.90900
O          5.40500       11.49200        4.03900
C          7.53300       12.63000        0.89600
O          8.71400       12.98000        0.94600
N          7.15200       11.60100        0.12700
H          6.19000       11.29100        0.23000
C          7.86200       11.16000       -1.09000
H          8.20200       12.06600       -1.59600
C          9.13900       10.33400       -0.80200
H          9.58600       10.09000       -1.76700
H          9.86700       10.96600       -0.29500
C          8.97500        9.01200       -0.03100
H          8.07800        8.49800       -0.37800
H          9.82700        8.37600       -0.27500
C          8.91300        9.13200        1.49900
H          8.03300        9.70300        1.78100
H          8.79300        8.12500        1.90100
C         10.17500        9.74500        2.12800
H         10.46500        9.12500        2.98000
H         10.98900        9.72300        1.39800
N          9.93100       11.12800        2.59900
H          9.13100       11.13300        3.23800
H         10.72700       11.52400        3.07400
H          9.66800       11.74500        1.83100
C          6.90900       10.50600       -2.10700
O          7.21000        9.48000       -2.70200
N          5.72900       11.07500       -2.29400
H          5.49700       11.93400       -1.81300
H          5.09500       10.64800       -2.94700
