85
1 1
H          3.04300       11.96900        3.96200
C          3.61400       12.29200        3.09300
H          2.93800       12.43500        2.25000
H          4.35500       11.53500        2.83700
C          4.31300       13.59400        3.40200
O          4.09000       14.59000        2.71700
N          5.16100       13.58700        4.42900
H          5.30300       12.71300        4.91000
C          5.97300       14.74100        4.83800
H          5.30300       15.59100        4.97400
C          6.61300       14.42100        6.19900
H          5.85000       14.03700        6.87900
H          7.39000       13.66200        6.07400
S          7.33300       15.92000        6.92800
H          7.75600       15.37600        8.07800
C          7.01200       15.14000        3.76300
O          7.32900       14.34900        2.87500
N          7.54400       16.37000        3.82800
H          7.32900       16.91600        4.65300
C          8.42700       16.98500        2.81200
H          8.06500       16.67400        1.84000
C          8.34900       18.52900        2.87600
H          8.68400       18.84400        3.86600
H          9.04100       18.95000        2.14700
C          6.96500       19.15800        2.61100
H          6.20800       18.65400        3.21100
H          7.00800       20.19200        2.95800
C          6.52500       19.20100        1.13100
H          5.58200       19.74500        1.05500
H          7.27400       19.75600        0.56200
N          6.37100       17.86800        0.52300
H          7.11100       17.57100       -0.11900
C          5.53500       16.91600        0.88700
N          4.50500       17.12900        1.65400
H          4.25700       18.06200        1.90900
H          3.99000       16.31900        1.98300
N          5.75300       15.69200        0.53100
H          6.65000       15.50200        0.07600
H          5.23100       14.94800        0.96500
C          9.87100       16.45700        2.80500
O         10.82200       17.23400        2.79300
N         10.04700       15.13600        2.73400
H          9.21400       14.55800        2.72100
C         11.34800       14.51200        2.44400
H         12.06000       14.76500        3.23100
H         11.22700       13.43000        2.41300
C         11.92700       14.97000        1.09600
O         13.13100       15.16200        0.96800
N         11.05600       15.29900        0.13800
H         10.07200       15.12800        0.32000
C         11.36100       15.96600       -1.13700
H         12.13000       15.38900       -1.65400
C         10.08400       15.96000       -1.99800
H         10.26000       16.48700       -2.93700
H          9.83600       14.92600       -2.24500
C          8.89600       16.58500       -1.26200
O          8.58900       17.77700       -1.49000
O          8.29900       15.90300       -0.40300
C         11.90400       17.41100       -0.99600
O         12.09100       18.09300       -2.00800
N         12.12200       17.90300        0.23200
H         11.87100       17.30900        1.01500
C         12.76000       19.19100        0.56500
H         13.29100       19.55500       -0.31300
C         11.69600       20.23500        0.98100
H         11.23500       19.90100        1.91200
H         12.18900       21.18700        1.18500
C         10.58100       20.48300       -0.05000
H         10.09300       19.53700       -0.27400
H          9.82900       21.13500        0.39700
C         11.09300       21.14900       -1.34100
H         11.26600       22.20700       -1.14000
H         12.04600       20.71600       -1.64200
C         10.11600       21.01400       -2.51600
H          9.14400       21.42600       -2.23100
H         10.50900       21.60600       -3.34700
N          9.97500       19.60100       -2.94000
H          9.55100       19.50300       -3.84900
H         10.88000       19.12900       -2.92600
H          9.40400       19.07000       -2.27700
C         13.85400       19.05100        1.64000
O         14.33900       20.04800        2.15500
N         14.26700       17.84200        1.99300
H         13.88700       17.01900        1.54900
H         14.98300       17.77300        2.69600
