53
-2 1
H          7.76200       11.55900        4.56600
C          8.73100       12.00500        4.35100
H          9.47700       11.61600        5.04000
H          8.67000       13.08800        4.43400
C          9.13000       11.64300        2.94100
O          9.31600       12.52500        2.11200
N          9.26900       10.34500        2.69800
H          9.11900        9.68400        3.45400
C          9.59100        9.72500        1.40700
H         10.00900       10.47700        0.73800
C         10.66300        8.63000        1.61900
H         10.74900        8.04200        0.70300
H         11.61900        9.13500        1.76700
C         10.45200        7.67300        2.81300
O          9.38300        7.73400        3.47100
O         11.39200        6.89500        3.08000
C          8.33900        9.15900        0.70900
O          8.06500        9.49700       -0.44400
N          7.55900        8.32800        1.40600
H          7.91200        8.02300        2.31200
C          6.30500        7.75400        0.90600
H          5.89400        7.07300        1.65000
H          5.58800        8.56100        0.74900
C          6.46900        6.98300       -0.40900
O          7.46000        6.28700       -0.63100
N          5.50000        7.12200       -1.31200
H          4.68300        7.68900       -1.07000
C          5.53400        6.54700       -2.66200
H          5.79000        5.49300       -2.56600
C          4.13100        6.62100       -3.29900
H          4.18800        6.12500       -4.26900
H          3.43100        6.04000       -2.69500
C          3.55600        8.03400       -3.52800
H          4.36800        8.74900       -3.67800
H          2.97700        8.00800       -4.45400
C          2.64200        8.51200       -2.38500
O          1.51600        8.96100       -2.69400
O          3.07200        8.42300       -1.21000
C          6.61400        7.15400       -3.58500
O          6.86700        6.60500       -4.65800
N          7.27700        8.24400       -3.17900
H          7.04900        8.63200       -2.27000
C          8.45700        8.78900       -3.85700
H          8.41300        8.51300       -4.91100
C          8.39700       10.32000       -3.77600
H          9.22600       10.74800       -4.34100
H          7.45700       10.67600       -4.19700
H          8.47200       10.64500       -2.73800
C          9.79200        8.23100       -3.31000
O         10.85000        8.47400       -3.88800
N          9.78800        7.47500       -2.21700
H          8.91800        7.28200       -1.73500
H         10.66200        7.13200       -1.85900
