53
-2 1
H         10.02100        6.06400       -0.44200
C          9.84800        7.10100       -0.72200
H         10.67500        7.71900       -0.37700
H          8.91200        7.45300       -0.29500
C          9.76700        7.19100       -2.22700
O          8.74100        7.59600       -2.76000
N         10.85800        6.82000       -2.88400
H         11.67900        6.54100       -2.35500
C         11.04600        6.80500       -4.33900
H         10.21300        7.32200       -4.81600
C         12.34100        7.57300       -4.69700
H         12.59800        7.36400       -5.73700
H         12.11600        8.63900       -4.62900
C         13.57500        7.30000       -3.80900
O         13.54700        6.34300       -2.99400
O         14.54000        8.08400       -3.93000
C         11.04900        5.37100       -4.90500
O         10.21500        5.03600       -5.74700
N         11.94000        4.50900       -4.40500
H         12.63800        4.89100       -3.76900
C         12.01300        3.08800       -4.76000
H         12.78600        2.60700       -4.16300
H         11.05800        2.62100       -4.51500
C         12.31700        2.81700       -6.24000
O         13.06100        3.54600       -6.89300
N         11.75200        1.73000       -6.76600
H         11.12700        1.18100       -6.17700
C         11.74000        1.40100       -8.19900
H         12.59300        1.88500       -8.67500
C         11.90300       -0.12200       -8.38800
H         12.16600       -0.29100       -9.43300
H         12.75100       -0.46200       -7.79100
C         10.68800       -1.02200       -8.07700
H          9.84400       -0.72200       -8.70200
H         10.94600       -2.04200       -8.37100
C         10.26300       -1.01300       -6.60000
O          9.70000        0.01700       -6.15900
O         10.51300       -2.02900       -5.91700
C         10.48100        1.92600       -8.91400
O         10.52400        2.21200      -10.11000
N          9.36400        2.05600       -8.19000
H          9.38200        1.68000       -7.24500
C          8.08600        2.54100       -8.71100
H          7.88800        2.03700       -9.65800
C          6.99900        2.13500       -7.70800
H          7.02100        1.05400       -7.55800
H          7.17500        2.63100       -6.75200
H          6.02100        2.42600       -8.09000
C          8.04900        4.06000       -8.99000
O          7.21000        4.52900       -9.75700
N          8.92000        4.85800       -8.38500
H          9.56400        4.48700       -7.69800
H          8.88200        5.84500       -8.56600
