53
-2 1
H          7.22500        6.84000        0.05100
C          7.22200        5.75900        0.18200
H          7.94100        5.31700       -0.50500
H          6.23000        5.36100       -0.01600
C          7.63200        5.42800        1.60200
O          8.63800        4.76200        1.79800
N          6.88400        5.85400        2.61700
H          7.27400        5.72800        3.54500
C          5.64700        6.65000        2.55000
H          5.00900        6.24900        1.76300
C          4.86200        6.52200        3.87300
H          3.98100        7.16300        3.81400
H          4.50600        5.49300        3.94900
C          5.62800        6.85000        5.16800
O          4.97200        6.80200        6.23100
O          6.84900        7.12700        5.10100
C          5.89700        8.13000        2.20400
O          5.17300        8.69200        1.38300
N          6.94800        8.73400        2.76400
H          7.40600        8.21200        3.50900
C          7.38600       10.11800        2.52300
H          6.52100       10.77500        2.60900
H          8.10400       10.39800        3.29200
C          8.02900       10.37300        1.15100
O          9.12800       10.91800        1.08300
N          7.37100        9.95500        0.07000
H          6.45500        9.54700        0.22400
C          7.80100       10.18900       -1.31700
H          8.86000        9.93100       -1.38300
C          7.00900        9.25700       -2.26400
H          6.49400        8.49600       -1.67500
H          6.24000        9.83000       -2.78400
C          7.87200        8.51300       -3.29600
H          8.61100        7.90600       -2.76600
H          7.23000        7.83000       -3.85700
C          8.58100        9.46300       -4.26500
O          8.00800        9.77100       -5.33100
O          9.67200        9.96400       -3.90800
C          7.65900       11.67300       -1.72700
O          6.77300       12.38600       -1.25000
N          8.51600       12.13600       -2.64100
H          9.18100       11.47000       -3.03300
C          8.55500       13.51100       -3.14600
H          7.55200       13.93000       -3.06900
C          9.48400       14.32500       -2.23300
H          9.48100       15.37100       -2.54200
H          9.13500       14.25900       -1.20200
H         10.50000       13.93300       -2.29600
C          8.95900       13.63000       -4.63700
O          9.09800       14.73700       -5.15700
N          9.16300       12.53700       -5.36100
H          9.40600       12.63300       -6.32900
H          9.03800       11.60900       -4.96400
