158
-1 1
H          7.75700       14.04300       -1.32800
C          8.45800       14.32600       -0.54600
H          8.02500       15.08900        0.09600
H          9.35500       14.72600       -1.01000
C          8.83500       13.10600        0.26700
O          9.98700       12.69300        0.24500
N          7.91100       12.47600        0.98700
H          8.24200       11.68800        1.52100
C          6.48100       12.81500        1.08800
H          6.08500       12.99200        0.08800
C          5.73300       11.61600        1.69200
H          6.05200       11.48800        2.72700
H          4.66600       11.84300        1.70700
C          5.93700       10.31100        0.94400
C          5.26000       10.08200       -0.26900
H          4.58700       10.83200       -0.66100
C          5.46200        8.88300       -0.97700
H          4.94400        8.71300       -1.91000
C          6.34300        7.91000       -0.47400
H          6.50100        6.99000       -1.01900
C          7.02000        8.13400        0.73800
H          7.70100        7.38800        1.12300
C          6.81700        9.33300        1.44600
H          7.34400        9.50200        2.37400
C          6.19700       14.07900        1.92000
O          5.15200       14.69900        1.75600
N          7.13200       14.46200        2.78800
H          7.95100       13.86700        2.89300
C          7.08600       15.62900        3.67400
H          6.08600       16.06300        3.62600
C          7.30800       15.14400        5.12500
H          6.80400       15.85900        5.77600
H          6.78700       14.19400        5.25800
C          8.74300       14.98900        5.67700
H          9.15000       15.99200        5.78900
H          8.66100       14.57300        6.68400
C          9.76200       14.13900        4.88700
O          9.46000       13.58700        3.80200
O         10.92800       14.06700        5.32400
C          8.06400       16.74000        3.24300
O          7.71900       17.91800        3.27700
N          9.24800       16.35700        2.75200
H          9.45300       15.36300        2.77900
C         10.27300       17.23300        2.17400
H          9.81100       18.16400        1.84500
C         11.37000       17.54800        3.20700
H         11.88200       16.61500        3.44900
H         12.10500       18.20200        2.73600
C         10.93400       18.20400        4.50600
C         10.22100       19.41800        4.49100
H          9.94300       19.87100        3.55100
C          9.83700       20.02900        5.69900
H          9.27100       20.94900        5.68000
C         10.17200       19.43300        6.92700
H          9.86800       19.89600        7.85500
C         10.89100       18.22500        6.94700
H         11.13900       17.75500        7.88700
C         11.27400       17.61400        5.73900
H         11.80800       16.67300        5.76200
C         10.91200       16.54300        0.96400
O         11.18900       15.34700        1.02300
N         11.18700       17.26100       -0.12600
H         10.99600       18.24800       -0.12900
C         11.90000       16.68200       -1.27700
H         11.67800       15.61800       -1.28600
C         11.39400       17.29000       -2.60800
H         10.92500       18.25800       -2.42400
H         12.24100       17.47000       -3.26800
C         10.40800       16.38400       -3.37300
H          9.45600       16.39300       -2.83800
H         10.23700       16.80900       -4.36400
C         10.89500       14.93000       -3.51600
O         12.12400       14.68800       -3.50300
O         10.07200       13.99500       -3.45500
C         13.43500       16.74400       -1.15500
O         13.98900       17.42900       -0.29500
N         14.11200       16.00400       -2.03800
H         13.53400       15.48800       -2.70300
C         15.55800       15.96800       -2.30800
H         15.69400       15.21200       -3.08000
C         16.01300       17.29900       -2.92900
H         16.06100       18.05000       -2.13900
H         17.02500       17.17300       -3.31800
C         15.13400       17.81800       -4.05500
C         14.48200       19.06000       -3.92900
H         14.61400       19.65000       -3.03300
C         13.64200       19.52600       -4.95700
H         13.13600       20.47500       -4.85300
C         13.45000       18.74900       -6.11300
H         12.79600       19.10000       -6.89800
C         14.10200       17.51000       -6.24300
H         13.94800       16.90600       -7.12500
C         14.94500       17.04700       -5.21800
H         15.43600       16.08800       -5.31900
C         16.49600       15.53500       -1.16700
O         17.62100       15.12900       -1.45700
N         16.07700       15.57500        0.10600
H         15.17600       16.01100        0.27300
C         16.94500       15.25000        1.26000
H         17.85400       15.83800        1.13200
C         16.30500       15.71700        2.58300
H         17.11700       15.88400        3.29300
H         15.82000       16.68200        2.42500
C         15.31000       14.76200        3.26600
H         15.81700       13.82900        3.51400
H         15.00100       15.22800        4.20400
C         14.05300       14.44700        2.44900
H         13.57800       15.37700        2.13700
H         14.32000       13.86900        1.57000
C         13.08900       13.64300        3.32700
H         13.60800       12.78100        3.75200
H         12.76600       14.28100        4.15400
N         11.90000       13.17500        2.58500
H         12.10900       12.34800        2.02300
H         11.12500       13.00000        3.22800
H         11.55800       13.88600        1.95000
C         17.44400       13.79600        1.30400
O         18.43100       13.51100        1.97100
N         16.79400       12.89800        0.56500
H         15.92400       13.19400        0.13900
C         17.29200       11.56400        0.20400
H         18.31600       11.46400        0.56900
C         16.44700       10.48700        0.91600
H         17.02300        9.56200        0.89500
H         16.33700       10.76700        1.96600
C         15.05000       10.15900        0.34900
H         15.16500        9.77300       -0.66500
H         14.63500        9.34400        0.94600
C         14.05100       11.32800        0.33600
O         13.00900       11.24300        1.01500
O         14.25700       12.31700       -0.40900
C         17.35800       11.36800       -1.32600
O         18.29200       10.75500       -1.84000
N         16.40200       11.94600       -2.06500
H         15.64000       12.36600       -1.54100
C         16.28700       11.99100       -3.53200
H         16.60600       11.02800       -3.93100
C         14.80000       12.20500       -3.89800
H         14.40800       13.06000       -3.34400
H         14.71200       12.42200       -4.96400
C         13.95000       10.95400       -3.60300
H         14.29400       10.15600       -4.26200
H         14.10700       10.62200       -2.57900
C         12.44400       11.16500       -3.84200
H         12.27500       12.05400       -4.45500
H         12.06800       10.30800       -4.40200
C         11.61700       11.26600       -2.55100
H         10.55900       11.27300       -2.82800
H         11.80700       10.39700       -1.91600
N         11.89800       12.50400       -1.80300
H         11.77900       13.30100       -2.43100
H         11.24800       12.61200       -1.02900
H         12.83600       12.51400       -1.40700
C         17.23300       13.03100       -4.16200
O         16.85700       13.79400       -5.04400
N         18.47100       13.10000       -3.70200
H         18.75200       12.47000       -2.96500
H         19.07400       13.82600       -4.04400
