158
-1 1
H         10.16700       17.53800        2.91700
C          9.92900       16.47800        2.86800
H         10.14800       15.99600        3.81800
H         10.53700       16.02200        2.09100
C          8.46700       16.29800        2.51800
O          8.15100       15.70000        1.49700
N          7.52900       16.79500        3.32000
H          6.57800       16.55400        3.07900
C          7.73600       17.55100        4.56700
H          8.48100       18.32900        4.40200
C          6.41100       18.22500        4.95700
H          5.69700       17.45300        5.25100
H          6.58400       18.85600        5.82900
C          5.79200       19.07000        3.85800
C          6.26600       20.37400        3.61800
H          7.06400       20.77800        4.22400
C          5.70900       21.14800        2.58400
H          6.07800       22.14700        2.39900
C          4.67800       20.62100        1.78600
H          4.25200       21.21400        0.99000
C          4.20300       19.31900        2.02400
H          3.41400       18.90900        1.40900
C          4.75800       18.54500        3.05800
H          4.39400       17.54100        3.23300
C          8.23000       16.66600        5.72300
O          8.96500       17.12500        6.59000
N          7.84200       15.39400        5.69500
H          7.20400       15.14500        4.94300
C          8.28300       14.31400        6.58800
H          8.72200       14.76200        7.48100
C          7.08500       13.44900        7.05800
H          7.40500       12.40700        7.10900
H          6.84100       13.74900        8.07900
C          5.77500       13.51800        6.24200
H          5.10000       12.73400        6.59300
H          5.29100       14.47700        6.44100
C          5.99900       13.36400        4.73500
O          6.52300       12.31700        4.31000
O          5.79400       14.34600        3.98200
C          9.40900       13.46700        5.96300
O         10.43900       13.26100        6.60200
N          9.26000       13.03200        4.70700
H          8.33500       13.07600        4.28900
C         10.30500       12.34800        3.93900
H         11.27400       12.63700        4.34900
C         10.16000       10.83100        4.11400
H         10.04700       10.60700        5.17600
H          9.25100       10.49700        3.61200
C         11.34600       10.04900        3.58600
C         11.37900        9.62600        2.24500
H         10.55500        9.85200        1.58400
C         12.50100        8.94100        1.74700
H         12.52900        8.64400        0.70800
C         13.59100        8.66600        2.59300
H         14.45400        8.14300        2.20700
C         13.55900        9.08400        3.93500
H         14.39800        8.87900        4.58500
C         12.44000        9.77800        4.43000
H         12.42200       10.11100        5.45800
C         10.28300       12.76500        2.45900
O          9.22500       12.82200        1.83400
N         11.45000       13.08000        1.89600
H         12.28900       12.93100        2.43100
C         11.59500       13.65900        0.55100
H         10.73900       14.31500        0.39100
C         12.87600       14.52900        0.55200
H         12.85800       15.13800        1.45700
H         13.74900       13.87900        0.62000
C         13.07100       15.50000       -0.62700
H         13.80200       16.26100       -0.34700
H         13.48200       14.94500       -1.47000
C         11.76300       16.16700       -1.05800
O         11.24200       15.81000       -2.13500
O         11.12600       16.88000       -0.25900
C         11.56000       12.60300       -0.58200
O         11.62300       11.40100       -0.33500
N         11.45200       13.04300       -1.84000
H         11.39900       14.05000       -1.97400
C         11.47900       12.25900       -3.08800
H         11.37900       12.98700       -3.89300
C         12.85100       11.58800       -3.28100
H         12.91000       10.72100       -2.62200
H         12.91300       11.21500       -4.30400
C         14.05200       12.48100       -3.02500
C         14.39400       13.48700       -3.94700
H         13.80100       13.62800       -4.84000
C         15.49800       14.32400       -3.70100
H         15.75000       15.10400       -4.40500
C         16.26200       14.15600       -2.53200
H         17.10300       14.80600       -2.33900
C         15.92200       13.15200       -1.60900
H         16.50100       13.02900       -0.70500
C         14.81800       12.31600       -1.85500
H         14.54700       11.55500       -1.13500
C         10.33400       11.25400       -3.31000
O         10.10400       10.86800       -4.45500
N          9.59100       10.86400       -2.26600
H          9.90800       11.18600       -1.35700
C          8.49600        9.87100       -2.30100
H          8.92000        8.91100       -2.59700
C          7.91400        9.72500       -0.88200
H          7.22300        8.88100       -0.87600
H          8.72600        9.50200       -0.18800
C          7.16600       10.98200       -0.39800
H          7.83600       11.84100       -0.43200
H          6.31400       11.17000       -1.05100
C          6.64400       10.80800        1.03100
H          6.05900        9.89000        1.08800
H          7.48400       10.72200        1.72300
C          5.74600       11.97200        1.46400
H          4.89600       12.06300        0.78500
H          5.36900       11.74200        2.46400
N          6.47400       13.25700        1.52700
H          7.46200       13.11000        1.70700
H          6.38000       13.78900        0.66100
H          6.13500       13.81100        2.31400
C          7.38400       10.16300       -3.32200
O          6.69500        9.24900       -3.76000
N          7.21100       11.43100       -3.67900
H          7.74800       12.11700       -3.16000
C          6.23000       11.94700       -4.63800
H          5.87300       11.12100       -5.25500
C          5.02400       12.51000       -3.85600
H          4.19800       12.60100       -4.56200
H          4.71800       11.77700       -3.10900
C          5.17400       13.88200       -3.16100
H          5.34800       14.64100       -3.92400
H          4.21200       14.12200       -2.70300
C          6.27400       13.98900       -2.08700
O          7.47900       13.82400       -2.39700
O          5.95800       14.32800       -0.92900
C          6.84000       12.98700       -5.60100
O          6.45000       13.06600       -6.76200
N          7.82400       13.76000       -5.12500
H          8.00000       13.68700       -4.12600
C          8.57800       14.79000       -5.85600
H          7.90600       15.29900       -6.54800
C          9.10700       15.80900       -4.82500
H          9.58500       15.27000       -4.00700
H          9.85700       16.44700       -5.29600
C          7.98600       16.71100       -4.27500
H          7.61300       17.31800       -5.10100
H          7.15600       16.10600       -3.91400
C          8.44900       17.65600       -3.15000
H          9.53800       17.74200       -3.14900
H          8.04600       18.64700       -3.36000
C          7.96000       17.25300       -1.74900
H          8.18200       18.07300       -1.06200
H          6.87800       17.09700       -1.76400
N          8.62800       16.03800       -1.24700
H          8.34500       15.20600       -1.76100
H          9.64400       16.14800       -1.31200
H          8.40700       15.87300       -0.27000
C          9.71600       14.22800       -6.72200
O         10.30700       14.95700       -7.50900
N         10.05700       12.95300       -6.60800
H          9.57600       12.35300       -5.95400
H         10.79200       12.60100       -7.19400
