158
-1 1
H         12.71500       16.42800       -6.11800
C         12.59600       15.87700       -5.18800
H         11.69700       15.26500       -5.22300
H         12.52200       16.57900       -4.36200
C         13.79800       14.98900       -4.97800
O         13.65400       13.77100       -4.94000
N         14.97600       15.59700       -4.87200
H         14.95800       16.61300       -4.88900
C         16.28800       14.92100       -4.79500
H         16.19300       14.03500       -4.16500
C         16.68800       14.47100       -6.21400
H         17.62400       13.91300       -6.15600
H         15.93500       13.77700       -6.59000
C         16.85400       15.60700       -7.21200
C         18.08700       16.27900       -7.32400
H         18.92300       15.97700       -6.70900
C         18.22900       17.35200       -8.22200
H         19.17500       17.87000       -8.29500
C         17.14000       17.75600       -9.01400
H         17.24800       18.58400       -9.69900
C         15.90900       17.08400       -8.91000
H         15.07000       17.39600       -9.51500
C         15.76700       16.01100       -8.01100
H         14.81900       15.50200       -7.92600
C         17.41400       15.78400       -4.17700
O         18.56800       15.36700       -4.13400
N         17.10200       17.01300       -3.76200
H         16.12900       17.28300       -3.83600
C         18.04300       18.02000       -3.24400
H         19.05500       17.69700       -3.49500
C         17.84800       19.40100       -3.92700
H         18.05400       20.18500       -3.19800
H         18.61600       19.49500       -4.69700
C         16.49500       19.71200       -4.60800
H         16.45400       20.78000       -4.83200
H         16.46400       19.18100       -5.56200
C         15.26900       19.31600       -3.77800
O         15.03100       19.90400       -2.70500
O         14.60900       18.30700       -4.11800
C         18.03400       18.08100       -1.70600
O         18.89200       17.49000       -1.05300
N         17.04100       18.73900       -1.10200
H         16.36900       19.24600       -1.67300
C         16.71200       18.57200        0.31200
H         17.63100       18.52000        0.89800
C         15.90100       19.78400        0.79300
H         15.02100       19.89700        0.16000
H         15.55800       19.59500        1.81100
C         16.67600       21.08900        0.77800
C         16.56300       21.97100       -0.31400
H         15.92100       21.71900       -1.14800
C         17.29100       23.17400       -0.33000
H         17.20500       23.84300       -1.17400
C         18.13400       23.50000        0.74700
H         18.69600       24.42300        0.73200
C         18.25000       22.62200        1.83900
H         18.90100       22.86900        2.66500
C         17.52200       21.41800        1.85400
H         17.61800       20.74200        2.69100
C         15.96900       17.23800        0.47200
O         14.74100       17.18500        0.41100
N         16.72300       16.14400        0.54500
H         17.72400       16.27000        0.45800
C         16.20500       14.77400        0.45500
H         15.67000       14.70700       -0.49200
C         17.41500       13.81500        0.38300
H         18.05600       14.15500       -0.43300
H         17.99200       13.90100        1.30500
C         17.11400       12.32600        0.13800
H         18.03000       11.82600       -0.18300
H         16.81200       11.87900        1.08800
C         16.01000       12.09800       -0.90000
O         15.02500       11.39700       -0.58700
O         15.99300       12.74600       -1.96500
C         15.18900       14.40700        1.56500
O         15.16700       14.99100        2.64800
N         14.32700       13.42500        1.28200
H         14.44200       12.95400        0.39100
C         13.31800       12.81500        2.15400
H         12.82100       12.08200        1.52200
C         14.00800       12.00900        3.26900
H         14.92800       11.57400        2.87400
H         14.28800       12.68500        4.07800
C         13.16700       10.87000        3.81600
C         12.49000       11.00000        5.04400
H         12.56200       11.92100        5.60300
C         11.69900        9.94200        5.53000
H         11.17300       10.04900        6.46700
C         11.58300        8.75300        4.78900
H         10.96500        7.94400        5.15300
C         12.25900        8.62000        3.56300
H         12.15700        7.71200        2.98600
C         13.05200        9.67600        3.07900
H         13.56800        9.57500        2.13400
C         12.17300       13.72200        2.64900
O         11.21300       13.21800        3.23100
N         12.18700       15.02900        2.34800
H         13.03500       15.38800        1.92600
C         11.08300       15.97500        2.64300
H         10.94200       16.00200        3.72400
C         11.47300       17.38600        2.16500
H         10.75000       18.10600        2.55300
H         12.45600       17.63600        2.57000
C         11.50700       17.49200        0.63100
H         12.14600       16.69500        0.25600
H         10.50600       17.35700        0.22000
C         12.04300       18.85100        0.15900
H         11.32800       19.62900        0.42700
H         12.97600       19.06300        0.67900
C         12.29300       18.90400       -1.35600
H         11.34100       18.85800       -1.88900
H         12.77900       19.85700       -1.59200
N         13.17000       17.80700       -1.81700
H         13.62300       18.05300       -2.69800
H         13.90000       17.63400       -1.13500
H         12.64900       16.93400       -1.93200
C          9.72300       15.57600        2.05000
O          8.69400       16.08000        2.48800
N          9.72500       14.71100        1.03800
H         10.63300       14.40000        0.71000
C          8.54500       14.23100        0.31100
H          7.64800       14.58400        0.82300
C          8.53700       14.84500       -1.10400
H          7.55600       14.65700       -1.54200
H          8.64200       15.92800       -1.01300
C          9.59500       14.33800       -2.10500
H          9.41400       13.28000       -2.30300
H          9.44800       14.86500       -3.05100
C         11.04700       14.52900       -1.64200
O         11.69100       15.51500       -2.05800
O         11.54900       13.67000       -0.87800
C          8.44100       12.69400        0.28700
O          7.33500       12.16000        0.24800
N          9.57300       11.97800        0.34300
H         10.44500       12.49400        0.25300
C          9.64000       10.50500        0.41100
H          8.80800       10.08900       -0.16000
C         10.95800       10.02400       -0.22100
H         11.79200       10.48500        0.30900
H         11.03900        8.94100       -0.11000
C         11.04700       10.37000       -1.71600
H         10.27900        9.82000       -2.26200
H         10.84800       11.42800       -1.85500
C         12.42500       10.03200       -2.30500
H         13.16700        9.91800       -1.51400
H         12.35600        9.08100       -2.83400
C         12.89500       11.11800       -3.28100
H         13.73600       10.73000       -3.86200
H         12.08500       11.36500       -3.97100
N         13.34300       12.33800       -2.57400
H         14.18400       12.13900       -2.02100
H         13.62400       13.05200       -3.23800
H         12.65000       12.72700       -1.93600
C          9.49000        9.93800        1.83000
O          9.24700        8.74700        1.98900
N          9.63900       10.74400        2.87000
H          9.61700       10.34300        3.79000
H          9.90000       11.71000        2.73400
