142
2 1
H         16.65600       20.01800        4.83500
C         16.54300       19.55100        3.85700
H         17.30800       18.78800        3.72900
H         16.65000       20.30800        3.08200
C         15.17500       18.92100        3.76000
O         14.39200       19.27800        2.88700
N         14.89600       17.96900        4.64800
H         15.62700       17.74200        5.30800
C         13.62200       17.24900        4.83600
H         13.80300       16.51900        5.62300
C         12.55200       18.20600        5.38600
H         12.25700       18.90300        4.60100
H         11.66800       17.62600        5.65300
C         12.99200       18.98800        6.61000
C         13.40300       20.33000        6.48600
H         13.39200       20.81600        5.52200
C         13.83600       21.04200        7.61900
H         14.15000       22.07300        7.52700
C         13.85900       20.41500        8.87700
H         14.19000       20.96400        9.74900
C         13.45000       19.07600        9.00300
H         13.46700       18.59900        9.97400
C         13.01700       18.36300        7.87100
H         12.70500       17.33400        7.97600
C         13.09100       16.41900        3.65100
O         12.19900       15.59700        3.85700
N         13.63100       16.57100        2.43200
H         14.31400       17.31500        2.34900
C         13.13800       15.95000        1.18000
H         12.12700       16.30500        0.98800
C         14.04100       16.35500       -0.00200
H         15.06500       16.05400        0.22700
H         13.73300       15.79500       -0.88700
C         14.05300       17.84600       -0.38300
H         14.38300       18.44600        0.46200
H         14.79800       17.96600       -1.17000
C         12.71900       18.38400       -0.93400
H         12.92700       19.26900       -1.53900
H         12.28000       17.63600       -1.59700
N         11.74100       18.74500        0.11300
H         10.94600       18.12200        0.23800
C         11.72900       19.83700        0.85400
N         10.73300       20.08300        1.64900
H         10.70300       20.92400        2.18900
H          9.91500       19.47500        1.65100
N         12.69000       20.71600        0.82100
H         13.51100       20.50200        0.28800
H         12.69900       21.48100        1.46600
C         13.01000       14.42200        1.19900
O         12.27100       13.88600        0.38300
N         13.66500       13.72100        2.12600
H         14.23800       14.22400        2.78500
C         13.48400       12.27800        2.33000
H         13.70500       11.75500        1.39800
C         14.47200       11.79000        3.39900
H         14.26400       10.74100        3.61800
H         15.47500       11.82900        2.97300
C         14.49400       12.56100        4.68700
C         13.76400       12.27300        5.78900
H         13.08200       11.43500        5.88000
N         14.05500       13.18100        6.79000
H         13.68100       13.11100        7.72800
C         15.01000       14.08900        6.39000
C         15.66100       15.14500        7.04500
H         15.43800       15.36800        8.07900
C         16.64700       15.87300        6.35700
H         17.19300       16.65800        6.86500
C         16.94800       15.55300        5.02000
H         17.73400       16.09100        4.50600
C         16.27600       14.50000        4.36600
H         16.56000       14.23100        3.35900
C         15.29800       13.73200        5.03800
C         12.03900       11.90800        2.71200
O         11.53200       10.88700        2.24300
N         11.34400       12.75000        3.49200
H         11.81800       13.57700        3.83700
C          9.92400       12.55100        3.82300
H          9.56300       11.69800        3.26100
C          9.74100       12.17200        5.29600
H         10.52000       11.46600        5.58700
H          9.82900       13.06000        5.92400
C          8.41700       11.51000        5.51800
C          7.31100       12.08000        6.05000
H          7.25900       13.08700        6.44600
N          6.24600       11.20400        5.94900
H          5.31800       11.41400        6.29100
C          6.60600       10.03800        5.30800
C          5.89300        8.89900        4.90700
H          4.83200        8.82200        5.10300
C          6.58100        7.84200        4.28600
H          6.04900        6.94100        4.00400
C          7.97000        7.93200        4.08400
H          8.50200        7.09000        3.65600
C          8.67500        9.08500        4.48300
H          9.74700        9.13900        4.34600
C          8.00700       10.17700        5.08300
C          9.00400       13.70400        3.40200
O          7.87400       13.47000        2.97600
N          9.48900       14.94700        3.42600
H         10.43900       15.08700        3.75000
C          8.77600       16.11100        2.89200
H          7.71400       15.99700        3.11800
C          9.25100       17.38300        3.61400
H          9.33200       17.17100        4.68100
H         10.23900       17.67000        3.25500
C          8.29500       18.53700        3.44300
N          8.03900       19.20800        2.24600
C          7.09000       20.11500        2.52500
H          6.65100       20.79300        1.80100
N          6.75500       20.05700        3.82400
H          6.05000       20.63000        4.27400
C          7.50200       19.06500        4.42000
H          7.45600       18.74700        5.45300
C          8.89700       16.16400        1.35700
O          9.62800       16.98600        0.79500
N          8.21700       15.22300        0.68600
H          7.70100       14.55400        1.25100
C          8.07200       15.12600       -0.77800
H          8.00200       16.14600       -1.16100
C          9.31900       14.47900       -1.42300
H          9.32900       14.78200       -2.47100
H         10.21300       14.91200       -0.97400
C          9.46000       12.94000       -1.41300
H          8.64700       12.49000       -1.98300
H         10.38200       12.71200       -1.95100
C          9.56600       12.25600       -0.04000
H         10.23100       11.39800       -0.15100
H         10.01800       12.94300        0.67500
N          8.25900       11.80300        0.47000
H          7.45900       12.38400        0.24900
C          8.00800       10.75200        1.22900
N          6.80200       10.53900        1.66900
H          6.63200        9.79300        2.32200
H          6.08400       11.21100        1.46300
N          8.92900        9.91000        1.59600
H          8.69300        9.16500        2.22700
H          9.90400       10.14200        1.43700
C          6.77200       14.41700       -1.17400
O          6.27800       13.57400       -0.43200
N          6.23200       14.71300       -2.34300
H          5.37900       14.24500       -2.60800
H          6.65800       15.39700       -2.94500
