142
2 1
H         10.63700       10.39700        8.75200
C         10.53200       10.04700        7.72600
H          9.50900        9.70500        7.56800
H         11.22400        9.22700        7.54700
C         10.82700       11.18400        6.77800
O          9.97700       11.56000        5.97700
N         12.05000       11.71400        6.83900
H         12.67700       11.35500        7.54500
C         12.45400       12.96100        6.16600
H         11.91200       13.78400        6.63400
C         13.95500       13.19600        6.39500
H         14.52000       12.45100        5.83200
H         14.22100       14.17600        5.99500
C         14.37500       13.14300        7.85200
C         13.98800       14.17100        8.73300
H         13.41300       15.01100        8.37000
C         14.34800       14.11000       10.09100
H         14.05300       14.90100       10.76700
C         15.09800       13.02300       10.57200
H         15.38000       12.97900       11.61600
C         15.49000       11.99700        9.69500
H         16.07600       11.16700       10.06600
C         15.13000       12.05600        8.33600
H         15.44400       11.26600        7.66900
C         12.13600       13.02300        4.66300
O         11.84800       14.10100        4.14700
N         12.08600       11.88100        3.95800
H         12.29700       11.02700        4.45200
C         11.70000       11.80700        2.53400
H         12.31700       12.53600        2.00900
C         12.07600       10.43300        1.94300
H         12.19700       10.53800        0.86600
H         13.06100       10.16400        2.32900
C         11.11400        9.26500        2.24400
H         11.69600        8.34300        2.26100
H         10.68800        9.39900        3.23900
C          9.96900        9.07300        1.22900
H          9.32800        8.27000        1.60100
H          9.35000        9.96700        1.18000
N         10.45000        8.68800       -0.11800
H         10.68500        7.71900       -0.24800
C         10.55800        9.46300       -1.18800
N         10.29500       10.73300       -1.17700
H         10.07700       11.21000       -0.31000
H         10.45800       11.27600       -2.01500
N         10.95300        8.98200       -2.33100
H         11.17500        8.01000       -2.43800
H         11.03500        9.61100       -3.11400
C         10.26000       12.25400        2.23200
O          9.91500       12.39200        1.06000
N          9.42400       12.50500        3.24500
H          9.73000       12.28500        4.18800
C          8.16700       13.25100        3.09200
H          7.57400       12.79500        2.29800
C          7.35500       13.16800        4.39400
H          7.10000       12.12500        4.58700
H          7.97600       13.51400        5.22100
C          6.09600       13.98400        4.38900
C          4.87400       13.54300        4.01500
H          4.64700       12.52700        3.71300
N          3.96700       14.58500        4.06000
H          2.98300       14.47600        3.85500
C          4.56500       15.76100        4.45600
C          4.08300       17.06600        4.63900
H          3.04200       17.29300        4.45800
C          4.95800       18.05900        5.11100
H          4.59000       19.05900        5.30300
C          6.30000       17.73600        5.38400
H          6.95600       18.48900        5.80200
C          6.77900       16.42900        5.16900
H          7.80400       16.18900        5.40800
C          5.92500       15.40500        4.70100
C          8.39600       14.71900        2.68900
O          7.59800       15.27300        1.93200
N          9.49000       15.34100        3.15000
H         10.11800       14.82100        3.75300
C          9.95000       16.65600        2.68900
H          9.10300       17.20900        2.29300
C         10.51400       17.48000        3.85200
H          9.77400       17.52900        4.65100
H         11.41100       17.00100        4.24800
C         10.83900       18.87600        3.42300
C         12.05400       19.32100        3.03200
H         12.96300       18.72700        3.04300
N         11.94000       20.61400        2.55600
H         12.72400       21.15400        2.21400
C         10.63300       21.05400        2.58700
C         10.00100       22.23600        2.17300
H         10.57600       23.03200        1.72200
C          8.62000       22.38800        2.38600
H          8.12800       23.31100        2.10200
C          7.88900       21.36500        3.01800
H          6.83900       21.51800        3.23500
C          8.53400       20.17800        3.42000
H          7.98800       19.41000        3.94300
C          9.91500       19.98300        3.19400
C         10.97500       16.54400        1.55400
O         10.79400       17.13900        0.49000
N         12.02000       15.73300        1.74900
H         12.13500       15.33900        2.68000
C         13.06100       15.40400        0.76500
H         13.36200       16.32300        0.26000
C         14.30000       14.85100        1.49400
H         14.03700       13.93100        2.01500
H         15.06100       14.60600        0.75300
C         14.90100       15.79900        2.50600
N         14.30100       16.19600        3.70400
C         15.18900       16.99000        4.32100
H         15.03300       17.45200        5.28700
N         16.29900       17.11700        3.57500
H         17.12300       17.64300        3.83700
C         16.13800       16.37100        2.42700
H         16.85700       16.23600        1.63100
C         12.50900       14.44900       -0.30900
O         12.84800       13.26800       -0.37000
N         11.57200       14.96100       -1.11300
H         11.32300       15.92800       -0.92600
C         10.66100       14.17900       -1.96700
H         10.20000       13.40900       -1.35000
C          9.54500       15.11700       -2.46700
H          9.99300       16.02700       -2.87100
H          8.98200       14.63000       -3.26500
C          8.57400       15.45700       -1.31800
H          7.70900       14.79400       -1.37800
H          9.05700       15.26400       -0.36000
C          8.09600       16.91500       -1.31300
H          8.96700       17.57000       -1.36100
H          7.46300       17.09600       -2.18500
N          7.33700       17.17400       -0.07600
H          6.97400       16.35300        0.39300
C          7.29100       18.26800        0.65900
N          6.66200       18.23600        1.79700
H          6.60500       19.06200        2.36300
H          6.30400       17.35800        2.14500
N          7.88200       19.38000        0.32300
H          7.93700       20.14400        0.98000
H          8.42100       19.40400       -0.52100
C         11.35600       13.42900       -3.11000
O         10.98300       12.29400       -3.39400
N         12.37700       14.00200       -3.72500
H         12.84400       13.49500       -4.46000
H         12.67900       14.91900       -3.44600
