142
2 1
H         15.28000       14.45200       -8.10500
C         15.56800       15.05500       -7.24500
H         16.10900       15.93500       -7.59200
H         16.20600       14.46700       -6.58800
C         14.33000       15.48500       -6.49700
O         14.10500       16.68100       -6.31400
N         13.54000       14.51500       -6.04500
H         13.81100       13.55900       -6.21900
C         12.26500       14.74300       -5.35300
H         11.61700       15.30300       -6.02800
C         11.58400       13.40000       -5.05300
H         12.11100       12.92900       -4.22100
H         10.57000       13.60900       -4.72300
C         11.49200       12.40400       -6.20000
C         11.68000       11.03200       -5.94100
H         11.89700       10.69500       -4.93600
C         11.60400       10.09500       -6.98700
H         11.76900        9.04500       -6.78700
C         11.34100       10.52500       -8.29900
H         11.30200        9.80600       -9.10700
C         11.14100       11.89100       -8.56200
H         10.94300       12.22100       -9.57300
C         11.20700       12.82800       -7.51400
H         11.05000       13.87400       -7.73100
C         12.41200       15.58300       -4.07000
O         13.44800       15.56700       -3.39900
N         11.37900       16.36300       -3.73100
H         10.52600       16.27800       -4.27700
C         11.42400       17.35100       -2.63700
H         12.44800       17.69500       -2.52700
C         10.57400       18.58700       -2.99300
H          9.53600       18.28700       -3.13400
H         10.59900       19.28600       -2.15600
C         11.03500       19.33800       -4.26000
H         10.96900       18.68200       -5.12900
H         10.33200       20.15700       -4.42000
C         12.44600       19.94900       -4.18000
H         12.51200       20.73600       -4.93400
H         12.57400       20.42100       -3.20500
N         13.52200       18.97100       -4.45500
H         13.46200       18.44600       -5.32000
C         14.59500       18.71100       -3.72700
N         14.82200       19.24600       -2.56100
H         15.64700       19.01200       -2.04500
H         14.15100       19.87300       -2.14600
N         15.47000       17.86300       -4.17100
H         15.23700       17.36500       -5.02300
H         16.26000       17.59200       -3.62200
C         11.11400       16.73300       -1.27000
O         10.05400       16.95800       -0.69100
N         12.08700       15.98200       -0.75500
H         12.87200       15.79400       -1.36600
C         12.13100       15.38800        0.59000
H         13.02500       14.76400        0.61900
C         12.33900       16.46600        1.66900
H         11.43100       17.06300        1.75600
H         12.49000       15.96800        2.62800
C         13.48200       17.41700        1.44500
C         14.75200       17.22200        1.86700
H         15.09100       16.35700        2.42600
N         15.53400       18.30600        1.51600
H         16.49900       18.40500        1.80400
C         14.80200       19.26300        0.84800
C         15.12700       20.52700        0.33100
H         16.12700       20.92300        0.44400
C         14.12200       21.29800       -0.28000
H         14.34600       22.29600       -0.63900
C         12.81500       20.78800       -0.37900
H         12.03200       21.40400       -0.80300
C         12.50100       19.51800        0.14500
H         11.47800       19.17000        0.12900
C         13.48400       18.71800        0.77200
C         10.97700       14.41600        0.89000
O         11.15400       13.21400        0.72900
N          9.80200       14.90600        1.30500
H          9.70600       15.91000        1.37300
C          8.60200       14.06900        1.45600
H          8.91100       13.08900        1.82400
C          7.66000       14.67700        2.50500
H          8.25300       14.98900        3.36700
H          7.19000       15.57100        2.09100
C          6.58500       13.74900        2.99800
C          6.68800       12.97300        4.10200
H          7.54400       12.95700        4.76800
N          5.55100       12.20400        4.24500
H          5.40100       11.57700        5.02400
C          4.65400       12.43000        3.22400
C          3.39500       11.88800        2.92200
H          2.95000       11.15200        3.57600
C          2.69700       12.36200        1.79800
H          1.70200       11.99400        1.57900
C          3.27300       13.35700        0.98800
H          2.72200       13.74200        0.14000
C          4.54400       13.88500        1.29600
H          4.96800       14.66000        0.67400
C          5.27500       13.43500        2.42000
C          7.88300       13.82700        0.11800
O          7.15000       12.85100       -0.02200
N          8.08300       14.69300       -0.88100
H          8.71400       15.46600       -0.70800
C          7.60000       14.49900       -2.25600
H          6.53000       14.29500       -2.22300
C          7.81400       15.81200       -3.02600
H          7.10100       16.55800       -2.67300
H          8.81000       16.17200       -2.79800
C          7.72700       15.71300       -4.52500
N          8.82400       15.60500       -5.38400
C          8.30400       15.45300       -6.61300
H          8.88400       15.32900       -7.51900
N          6.96200       15.45900       -6.56200
H          6.34400       15.30700       -7.35000
C          6.57700       15.62300       -5.25200
H          5.56600       15.65000       -4.86900
C          8.27100       13.29100       -2.94000
O          9.39900       12.92800       -2.61600
N          7.56600       12.66100       -3.89200
H          6.68000       13.06700       -4.16400
C          8.03800       11.54100       -4.72600
H          9.12900       11.54900       -4.74900
C          7.56400       10.17100       -4.18400
H          6.47500       10.15500       -4.12600
H          7.85800        9.41400       -4.91300
C          8.16700        9.74300       -2.83100
H          8.22100        8.65400       -2.79400
H          9.18800       10.12300       -2.76500
C          7.37400       10.23000       -1.61000
H          8.01800       10.16800       -0.73000
H          7.11200       11.27000       -1.77000
N          6.13800        9.45800       -1.36300
H          6.03300        8.59100       -1.86100
C          5.17700        9.79300       -0.51400
N          5.21900       10.88100        0.19600
H          6.01500       11.50800        0.10300
H          4.47400       11.17000        0.81000
N          4.13200        9.03000       -0.36000
H          3.42600        9.30000        0.30000
H          4.04500        8.17200       -0.87300
C          7.55000       11.73500       -6.16500
O          6.50100       12.32500       -6.39000
N          8.27600       11.22700       -7.14500
H          7.94300       11.33400       -8.08900
H          9.16100       10.78500       -6.95300
