142
2 1
H         19.59800       25.06800        0.86200
C         18.63700       24.87800        0.38600
H         18.78600       24.23500       -0.48100
H         18.19200       25.82100        0.07500
C         17.72700       24.18300        1.36800
O         17.37600       23.02600        1.16700
N         17.32900       24.90700        2.41500
H         17.66000       25.85800        2.45400
C         16.69800       24.38900        3.64400
H         17.45800       23.84200        4.20300
C         16.25600       25.58900        4.50100
H         16.08500       25.23200        5.51800
H         17.06500       26.31900        4.55500
C         14.99100       26.27900        4.01400
C         13.75700       26.00200        4.63400
H         13.71300       25.33100        5.48000
C         12.57500       26.59700        4.15600
H         11.63100       26.39300        4.64200
C         12.62100       27.46600        3.05300
H         11.71400       27.92700        2.68800
C         13.85100       27.75000        2.43500
H         13.88500       28.43000        1.59500
C         15.03400       27.16300        2.91700
H         15.97400       27.40000        2.44200
C         15.51200       23.42300        3.44500
O         15.31000       22.53600        4.27400
N         14.75200       23.56100        2.34900
H         14.94400       24.36500        1.76700
C         13.63500       22.67600        1.96700
H         13.63700       21.82400        2.64600
C         12.32200       23.46400        2.18000
H         12.32800       23.84700        3.20100
H         12.32700       24.32900        1.51500
C         10.97900       22.72800        1.98600
H         10.18800       23.43100        2.24800
H         10.83900       22.47300        0.93600
C         10.79100       21.47300        2.85600
H         11.11500       21.70100        3.87300
H          9.72700       21.22700        2.87700
N         11.52900       20.31500        2.31800
H         11.80300       20.37800        1.34100
C         12.02900       19.29300        2.98100
N         11.82000       19.11800        4.25400
H         11.23000       19.76200        4.74600
H         12.28100       18.36100        4.72500
N         12.78100       18.42100        2.38300
H         13.27800       17.72400        2.91400
H         13.04900       18.53100        1.40600
C         13.78300       22.07900        0.55700
O         12.95300       21.27200        0.15000
N         14.83000       22.43400       -0.18900
H         15.54500       23.01600        0.22400
C         14.99500       22.03000       -1.59500
H         14.01400       22.02300       -2.07100
C         15.85300       23.06200       -2.34000
H         16.89700       22.87100       -2.08800
H         15.74200       22.89200       -3.41200
C         15.58000       24.51800       -2.06200
C         16.50600       25.49700       -2.17300
H         17.53600       25.33900       -2.47500
N         15.94200       26.71800       -1.86900
H         16.43800       27.59700       -1.94100
C         14.60600       26.59600       -1.56400
C         13.62600       27.53300       -1.20400
H         13.87500       28.58000       -1.11800
C         12.31200       27.09400       -0.97800
H         11.54000       27.80400       -0.71000
C         11.99400       25.73300       -1.13000
H         10.97500       25.40500       -0.98100
C         12.98600       24.80300       -1.49900
H         12.70800       23.77000       -1.63500
C         14.32700       25.20300       -1.71300
C         15.54300       20.60300       -1.76100
O         15.43400       20.01600       -2.83600
N         16.09500       20.01600       -0.69400
H         16.16300       20.54400        0.16200
C         16.41200       18.58900       -0.64300
H         17.01000       18.34600       -1.52300
C         17.26800       18.29100        0.59700
H         17.48900       17.22300        0.61600
H         18.22100       18.81100        0.48900
C         16.67800       18.67000        1.92500
C         16.81000       19.87700        2.51800
H         17.37600       20.71100        2.11600
N         16.11600       19.89000        3.71000
H         16.01800       20.72800        4.28300
C         15.53500       18.67100        3.97400
C         14.76800       18.18700        5.04500
H         14.59000       18.81600        5.90700
C         14.28100       16.86900        5.00000
H         13.72800       16.46100        5.83800
C         14.55400       16.06400        3.87900
H         14.20000       15.04100        3.85600
C         15.33400       16.55800        2.81300
H         15.57100       15.91700        1.97600
C         15.85100       17.87300        2.83200
C         15.12600       17.74700       -0.69700
O         14.14700       18.01900        0.00100
N         15.13300       16.71100       -1.53800
H         15.94500       16.60500       -2.12900
C         13.96700       15.86300       -1.85400
H         13.11900       16.17000       -1.24000
C         13.57300       16.10000       -3.32300
H         12.83200       15.36100       -3.62900
H         13.10400       17.08300       -3.39400
C         14.73700       16.06600       -4.28500
N         15.43000       14.92300       -4.69100
C         16.43100       15.36000       -5.47500
H         17.16400       14.72300       -5.95700
N         16.40000       16.69900       -5.57300
H         17.04900       17.26800       -6.10300
C         15.34300       17.16300       -4.82300
H         15.05900       18.19700       -4.66100
C         14.17800       14.37400       -1.52800
O         13.25500       13.57500       -1.66200
N         15.37800       14.00500       -1.06400
H         16.06700       14.74000       -0.97000
C         15.73000       12.73300       -0.40700
H         14.83300       12.29600        0.03600
C         16.34700       11.72100       -1.40100
H         17.13600       12.20100       -1.98300
H         16.81700       10.92800       -0.81700
C         15.34000       11.03100       -2.34000
H         15.72200       10.03800       -2.58100
H         14.38800       10.90700       -1.82200
C         15.11700       11.77800       -3.66100
H         14.83400       12.80000       -3.43700
H         16.05100       11.79600       -4.22600
N         14.05700       11.14500       -4.47000
H         13.85900       10.17900       -4.27600
C         13.31300       11.73700       -5.38900
N         13.46800       12.98600       -5.72600
H         14.18100       13.53900       -5.25800
H         12.89100       13.41600       -6.42000
N         12.38100       11.06700       -6.00700
H         12.21700       10.10200       -5.78100
H         11.81700       11.51800       -6.70200
C         16.69600       13.04100        0.74600
O         17.26800       14.12400        0.79600
N         16.87800       12.12000        1.67800
H         16.40300       11.23600        1.62300
H         17.51500       12.32800        2.43000
