77
0 1
H         17.38800        8.78800       -0.55100
C         16.46200        8.88900       -1.11200
H         15.83000        9.65400       -0.66600
H         15.93600        7.93500       -1.10300
C         16.77800        9.26100       -2.54800
O         16.33900        8.56900       -3.45600
N         17.50500       10.34700       -2.80500
H         17.66100       10.56200       -3.78500
C         17.90200       11.38200       -1.84400
H         18.31500       10.92300       -0.94600
H         18.68300       11.99300       -2.29700
C         16.74800       12.31300       -1.44600
O         15.62800       12.18000       -1.93800
N         17.01900       13.25900       -0.54300
H         17.95800       13.33900       -0.18900
C         16.08800       14.34300       -0.22500
H         15.09200       13.92600       -0.07400
C         16.52700       15.01200        1.08300
H         15.82400       15.80600        1.33900
H         16.54000       14.27900        1.89000
H         17.52200       15.44500        0.96800
C         16.03000       15.34100       -1.39600
O         17.06600       15.85400       -1.82300
N         14.83800       15.58300       -1.94700
H         14.03100       15.13300       -1.52600
C         14.61700       16.31400       -3.20100
H         13.55100       16.50600       -3.31900
H         15.13900       17.27000       -3.15600
C         15.11100       15.55000       -4.43700
O         14.32600       15.21800       -5.32000
N         16.40600       15.23500       -4.48200
H         16.97200       15.52800       -3.69300
C         17.06300       14.44400       -5.52100
H         16.66000       14.74700       -6.48800
C         18.55900       14.79700       -5.50400
H         18.99800       14.51800       -4.54500
H         19.07200       14.25600       -6.30000
H         18.69000       15.86700       -5.66300
C         16.78900       12.92800       -5.37500
O         17.70600       12.13500       -5.15400
N         15.52000       12.52300       -5.47200
H         14.79700       13.23100       -5.56700
C         15.09800       11.11900       -5.46400
H         14.91200       10.79800       -6.48800
H         15.89200       10.49300       -5.06500
C         13.82400       10.87100       -4.65500
O         12.91700       11.69900       -4.63900
N         13.74700        9.71200       -3.99800
H         14.55500        9.09800       -4.01600
C         12.54700        9.23800       -3.30300
H         11.71900        9.23400       -4.01400
C         12.80400        7.79300       -2.85800
H         11.90500        7.39200       -2.38700
H         13.05500        7.17600       -3.72100
H         13.62500        7.76100       -2.14100
C         12.10700       10.11600       -2.11300
O         10.93300       10.10600       -1.75200
N         13.00900       10.91000       -1.52400
H         13.93700       10.95300       -1.92600
C         12.68700       11.90700       -0.49800
H         11.92800       11.50600        0.17500
H         13.58200       12.12900        0.08200
C         12.15300       13.21300       -1.09600
O         12.63200       14.28800       -0.73600
N         11.24300       13.12300       -2.06600
H         10.88700       12.20300       -2.28900
C         10.72500       14.25800       -2.82700
H         11.57600       14.80400       -3.23500
C          9.90500       13.71600       -4.00400
H         10.52600       13.06300       -4.61800
H          9.04800       13.15200       -3.63100
H          9.54800       14.54300       -4.61900
C          9.90200       15.23600       -1.96200
O          9.24400       14.86100       -0.99800
N          9.89000       16.51300       -2.32200
H         10.41100       16.81900       -3.12500
H          9.34500       17.15200       -1.76700
