77
0 1
H         12.95500        9.98100        1.00800
C         12.98200        9.38300        1.91700
H         13.82200        9.69300        2.53400
H         13.08900        8.33100        1.65600
C         11.69600        9.57300        2.68500
O         10.96500        8.61700        2.91600
N         11.40400       10.81300        3.07500
H         12.03700       11.55200        2.80900
C         10.20000       11.18400        3.83100
H         10.05600       10.48000        4.65100
H         10.33500       12.18100        4.25100
C          8.93200       11.19400        2.97100
O          8.34200       12.24900        2.78500
N          8.54700       10.04000        2.41700
H          9.12100        9.24000        2.66800
C          7.68100        9.83600        1.24300
H          8.12400       10.41500        0.43300
C          7.81000        8.35700        0.84600
H          8.86200        8.08500        0.74600
H          7.34600        7.72600        1.60600
H          7.31600        8.18300       -0.11000
C          6.20000       10.31000        1.29800
O          5.33600        9.73000        0.64000
N          5.88400       11.39700        2.00700
H          6.63800       11.84400        2.51700
C          4.64300       12.16300        1.85000
H          3.78500       11.49300        1.91700
H          4.57100       12.90400        2.64700
C          4.60600       12.89200        0.50200
O          4.79700       14.10700        0.43800
N          4.42700       12.13300       -0.58400
H          4.37300       11.13200       -0.42800
C          4.56500       12.59300       -1.96600
H          4.63400       11.70500       -2.59500
C          3.28700       13.33900       -2.39300
H          3.35300       13.61900       -3.44600
H          2.42300       12.68700       -2.26200
H          3.14600       14.23400       -1.78500
C          5.89500       13.35200       -2.17900
O          6.96600       12.77200       -2.00000
N          5.84600       14.64700       -2.51700
H          4.93700       15.07700       -2.59300
C          7.03300       15.47600       -2.77200
H          7.57400       15.06800       -3.62600
H          6.70900       16.48500       -3.02200
C          8.01500       15.57900       -1.59600
O          9.20600       15.77500       -1.82300
N          7.56400       15.36200       -0.35300
H          6.58200       15.15300       -0.21300
C          8.44700       15.29900        0.81600
H          9.03600       16.21700        0.84900
C          7.57400       15.25500        2.07400
H          6.93800       16.13900        2.11800
H          6.94900       14.36300        2.06700
H          8.21100       15.23100        2.96000
C          9.45900       14.12900        0.75900
O         10.47600       14.15900        1.45300
N          9.24800       13.14100       -0.12400
H          8.39900       13.16500       -0.67900
C         10.21700       12.07900       -0.41000
H         10.40500       11.50800        0.49800
H          9.79000       11.41100       -1.15900
C         11.56400       12.58200       -0.94500
O         12.55900       11.87700       -0.80500
N         11.62300       13.80100       -1.49400
H         10.76900       14.34000       -1.57400
C         12.87000       14.45900       -1.89400
H         13.48900       13.73500       -2.42700
C         12.51100       15.59100       -2.86500
H         13.42500       16.05800       -3.23600
H         11.95000       15.19300       -3.71100
H         11.91000       16.34500       -2.35500
C         13.71700       14.98300       -0.70800
O         14.84500       15.42300       -0.89900
N         13.21400       14.96900        0.52200
H         13.78500       15.31900        1.27200
H         12.28300       14.61500        0.69300
