77
0 1
H         11.69600       14.03700       -2.86900
C         10.74600       14.57100       -2.85000
H          9.97500       13.92500       -2.43500
H         10.47900       14.86900       -3.86300
C         10.89300       15.80100       -1.98700
O         11.95900       16.04500       -1.43700
N          9.81300       16.57100       -1.85100
H          8.97500       16.28300       -2.32900
C          9.76500       17.82300       -1.08000
H         10.63600       18.42600       -1.33700
H          8.87200       18.38200       -1.36000
C          9.76000       17.63800        0.44400
O          8.87800       18.17500        1.11700
N         10.70400       16.86500        0.98400
H         11.41000       16.48400        0.36300
C         10.82500       16.58000        2.41400
H          9.92900       16.04800        2.73000
C         12.02500       15.65000        2.63000
H         11.89400       14.73400        2.05400
H         12.94300       16.14800        2.31400
H         12.10400       15.39500        3.68800
C         10.94500       17.87400        3.24200
O         11.72700       18.76500        2.90700
N         10.14000       18.00200        4.30100
H          9.52900       17.22200        4.52300
C         10.00400       19.22000        5.11300
H          9.44900       18.98500        6.02000
H         10.99800       19.55900        5.40600
C          9.29900       20.38300        4.39600
O          8.29700       20.90000        4.88500
N          9.78400       20.78000        3.21600
H         10.60400       20.29300        2.86800
C          9.28000       21.92300        2.44900
H          9.35500       22.81700        3.06900
C         10.18800       22.10100        1.22600
H         11.21800       22.25800        1.55000
H         10.14200       21.21500        0.59100
H          9.86200       22.97000        0.65300
C          7.80200       21.78400        2.02900
O          7.07000       22.77300        1.99600
N          7.33700       20.56300        1.74700
H          7.99400       19.79100        1.75900
C          5.93000       20.25800        1.47400
H          5.53400       20.97900        0.75800
H          5.85700       19.26300        1.03500
C          5.06600       20.29700        2.73700
O          4.65200       19.24600        3.22000
N          4.82600       21.49300        3.28400
H          5.28500       22.28900        2.85500
C          3.97400       21.73500        4.45600
H          4.14400       22.77000        4.75500
C          2.49800       21.63300        4.03900
H          2.30000       22.29500        3.19500
H          2.26000       20.60600        3.75800
H          1.86000       21.92400        4.87400
C          4.34700       20.88400        5.69500
O          3.48900       20.29600        6.34900
N          5.64300       20.78400        6.00300
H          6.32300       21.22800        5.39700
C          6.18400       20.00300        7.12100
H          7.10700       20.46900        7.46500
H          5.47100       20.00700        7.94600
C          6.49000       18.54400        6.76800
O          7.48400       18.00600        7.24700
N          5.70500       17.91800        5.88600
H          4.90300       18.41400        5.52000
C          6.00000       16.58200        5.36400
H          6.36900       15.95400        6.17700
C          4.69700       15.96800        4.83700
H          3.96400       15.91100        5.64300
H          4.29100       16.57700        4.02700
H          4.89100       14.96100        4.46500
C          7.09600       16.62100        4.28000
O          8.06900       15.87500        4.32000
N          6.99300       17.52800        3.31900
H          7.70000       17.57200        2.59900
H          6.18200       18.13000        3.30200
