96
0 1
H         11.76100       20.34600        4.07200
C         11.36300       20.63000        3.09900
H         12.16700       20.65100        2.36500
H         10.90300       21.61500        3.16800
C         10.32200       19.62200        2.67300
O          9.16500       19.98400        2.45100
N         10.72900       18.36000        2.55100
H         11.69800       18.13000        2.71900
C          9.85000       17.26600        2.14000
H          9.05800       17.13800        2.87800
H          9.40200       17.51800        1.18000
C         10.53600       15.92100        1.93900
O         11.76200       15.82500        1.89900
N          9.70900       14.89600        1.76100
H          8.71200       15.10500        1.77900
C         10.08100       13.64500        1.10300
H         11.05300       13.31900        1.47500
C          9.02200       12.59100        1.46400
H          8.05400       12.95500        1.13100
H          9.21600       11.66500        0.92600
C          8.93400       12.27800        2.94600
C          7.98700       12.93700        3.75500
H          7.32100       13.67000        3.32100
C          7.90900       12.64800        5.12900
H          7.18000       13.15600        5.74500
C          8.77700       11.70000        5.69900
H          8.71500       11.47800        6.75500
C          9.72300       11.04100        4.89500
H         10.39000       10.31300        5.33400
C          9.80200       11.33000        3.52000
H         10.53100       10.82100        2.90700
C         10.17700       13.87000       -0.42400
O          9.62100       14.84900       -0.93200
N         10.86200       13.00200       -1.19400
C         11.62300       11.84300       -0.74600
H         11.05000       11.20500       -0.07400
H         12.53600       12.18000       -0.25400
C         11.97600       11.06700       -2.01300
H         11.15500       10.39800       -2.27700
H         12.90700       10.50900       -1.90100
C         12.09800       12.17500       -3.05700
H         11.95900       11.79700       -4.07100
H         13.07800       12.64600       -2.96700
C         11.01200       13.17900       -2.64100
H         11.38300       14.18400       -2.84600
C          9.68200       13.00100       -3.40400
O          9.36300       11.91700       -3.88100
N          8.92200       14.09200       -3.54300
H          9.17800       14.90300       -2.99200
C          7.73300       14.18100       -4.40100
H          7.61000       15.21700       -4.71200
H          7.89500       13.57900       -5.29600
C          6.40900       13.73000       -3.77500
O          5.45500       13.49600       -4.51100
N          6.30900       13.61900       -2.44600
H          7.08100       13.94100       -1.87800
C          5.09600       13.11800       -1.76900
H          4.86700       12.14300       -2.20300
C          5.37800       12.89100       -0.27000
H          4.65400       12.15000        0.07300
H          6.35700       12.42600       -0.17200
C          5.27800       14.08000        0.71100
H          4.26100       14.47500        0.68100
H          5.42800       13.68500        1.71800
C          6.26000       15.24200        0.48600
O          6.97400       15.63300        1.43900
O          6.25100       15.86200       -0.59900
C          3.84400       13.98500       -2.00300
O          2.73000       13.47200       -2.08000
N          4.03600       15.29600       -2.17100
H          4.97800       15.62000       -1.96300
C          3.01800       16.29600       -2.53600
H          2.08700       16.00800       -2.04500
C          3.44900       17.66200       -1.97000
H          2.62500       18.37100       -2.06700
H          3.64000       17.53100       -0.90400
C          4.69700       18.24900       -2.66400
H          5.40100       17.45400       -2.91500
H          4.38900       18.73200       -3.59200
C          5.42500       19.27200       -1.78200
H          6.20800       19.74700       -2.37500
H          4.71500       20.03200       -1.45100
N          6.03400       18.60500       -0.61900
H          5.98800       17.58300       -0.60200
C          6.69200       19.12800        0.39100
N          7.06300       18.38900        1.38200
H          7.66200       18.78700        2.08900
H          6.92600       17.37100        1.33900
N          7.02600       20.38400        0.45700
H          7.64300       20.66000        1.20900
H          6.78300       20.99700       -0.29400
C          2.67700       16.34400       -4.03600
O          2.04300       17.28700       -4.49200
N          3.11900       15.38400       -4.83300
H          2.88600       15.42300       -5.80900
H          3.65600       14.61600       -4.45200
