79
0 1
H         -0.48100        5.48900        5.44400
C          0.33500        5.83300        6.07600
H          0.79800        4.98100        6.57100
H         -0.04100        6.52900        6.82400
C          1.37100        6.52700        5.22400
O          2.51800        6.09800        5.18400
N          0.95500        7.59100        4.53700
H         -0.01300        7.85700        4.61800
C          1.79800        8.38000        3.63000
H          1.73200        9.43200        3.90700
H          2.84000        8.08500        3.73000
C          1.38600        8.24600        2.15900
O          0.83100        9.20800        1.62200
N          1.59300        7.08000        1.50700
C          2.30900        5.92100        2.01800
H          1.65100        5.35000        2.67500
H          3.21800        6.20700        2.54800
C          2.66300        5.07800        0.79500
H          2.73800        4.01900        1.04200
H          3.59300        5.44000        0.35500
C          1.49900        5.36300       -0.15000
H          0.63900        4.75500        0.13900
H          1.76800        5.18100       -1.19100
C          1.21300        6.84400        0.11200
H          1.88500        7.42500       -0.51100
C         -0.25300        7.21100       -0.19300
O         -1.13000        6.88500        0.60700
N         -0.55100        7.86000       -1.34000
C         -1.91000        8.27100       -1.66300
H         -2.34500        8.86400       -0.85600
H         -2.52100        7.38500       -1.84300
C         -1.81100        9.10100       -2.94100
H         -1.60900       10.14400       -2.69000
H         -2.71100        9.01600       -3.55000
C         -0.59400        8.48900       -3.63100
H         -0.15400        9.17500       -4.35700
H         -0.88600        7.56000       -4.12300
C          0.34800        8.17400       -2.46200
H          0.93400        7.29100       -2.71900
C          1.34200        9.33200       -2.22800
O          2.16400        9.59900       -3.10000
N          1.29700       10.01300       -1.07900
H          0.64800        9.71400       -0.36000
C          2.33700       10.95800       -0.65900
H          2.64100       11.56600       -1.51100
H          1.92200       11.61700        0.10300
C          3.58600       10.27200       -0.07100
O          3.67200        9.04100       -0.03800
N          4.57200       11.04700        0.42100
C          4.65900       12.49600        0.33400
H          4.06400       12.94200        1.13200
H          4.33000       12.86500       -0.63800
C          6.13700       12.81800        0.54300
H          6.27900       13.81600        0.95800
H          6.67300       12.71200       -0.40200
C          6.58400       11.72700        1.51500
H          6.31900       12.02300        2.53200
H          7.65500       11.53600        1.44200
C          5.76000       10.50700        1.08700
H          6.32300        9.94200        0.34600
C          5.40200        9.61400        2.29400
O          4.45200        9.93400        3.00900
N          6.15000        8.52600        2.57000
C          5.88600        7.66800        3.72000
H          4.86300        7.29400        3.71200
H          6.06800        8.22900        4.63800
C          6.87000        6.50500        3.62100
H          6.43800        5.70700        3.01600
H          7.15600        6.13300        4.60500
C          8.04800        7.13700        2.88400
H          8.67500        6.38400        2.40300
H          8.64100        7.72600        3.58500
C          7.36500        8.07400        1.87900
H          8.02500        8.92200        1.69300
C          7.13000        7.36100        0.53100
O          8.08400        6.95600       -0.11900
N          5.90000        7.18800        0.06800
H          5.10200        7.58800        0.54200
H          5.79000        6.74000       -0.82600
