79
0 1
H          5.16700       14.49800       -5.80900
C          5.63500       14.71400       -4.85100
H          5.63200       15.78800       -4.67200
H          6.66000       14.34400       -4.84800
C          4.86000       14.02900       -3.75100
O          4.35200       14.68900       -2.85300
N          4.77100       12.70400       -3.81800
H          5.25400       12.22200       -4.56200
C          4.09400       11.87800       -2.82000
H          4.54200       12.08200       -1.84900
H          3.03900       12.15000       -2.77800
C          4.20300       10.37300       -3.10900
O          4.68800        9.99400       -4.18100
N          3.76500        9.51000       -2.16800
C          3.22300        9.86300       -0.86200
H          2.17100       10.13100       -0.97000
H          3.77500       10.67800       -0.39400
C          3.35200        8.60200       -0.01000
H          2.58800        8.55800        0.76600
H          4.35100        8.55300        0.42700
C          3.18500        7.48600       -1.03900
H          2.12200        7.33600       -1.24000
H          3.64600        6.55600       -0.70500
C          3.88400        8.05400       -2.27700
H          4.94200        7.81400       -2.21000
C          3.28200        7.48600       -3.57800
O          2.21700        7.94100       -3.99400
N          3.91200        6.47700       -4.21600
C          3.40400        5.90600       -5.45600
H          3.23800        6.68000       -6.20700
H          2.47000        5.37900       -5.25300
C          4.46500        4.91800       -5.93400
H          5.20600        5.43700       -6.54300
H          4.02400        4.08600       -6.48500
C          5.09900        4.46000       -4.62200
H          6.09900        4.05200       -4.77700
H          4.45800        3.71400       -4.15000
C          5.10500        5.73900       -3.77400
H          4.99900        5.46000       -2.72500
C          6.44300        6.49100       -3.92100
O          7.47100        5.96900       -3.49900
N          6.45800        7.69700       -4.49600
H          5.57700        8.12700       -4.75100
C          7.64200        8.56000       -4.52800
H          8.52500        7.95500       -4.73400
H          7.52800        9.28400       -5.33500
C          7.87000        9.33800       -3.21900
O          7.02400        9.32300       -2.32000
N          9.00100       10.05800       -3.09100
C         10.08600       10.15100       -4.05800
H          9.71000       10.24800       -5.07700
H         10.72300        9.27000       -3.97200
C         10.87700       11.40300       -3.67600
H         10.45300       12.27300       -4.18000
H         11.93600       11.30000       -3.91400
C         10.64100       11.51400       -2.16800
H         10.76600       12.53800       -1.81300
H         11.32500       10.84500       -1.64400
C          9.20500       11.01000       -1.99900
H          9.12100       10.48800       -1.04800
C          8.17700       12.16200       -2.07800
O          7.81200       12.55300       -3.18900
N          7.73100       12.74600       -0.94500
C          6.94600       13.97300       -0.96000
H          5.88800       13.73200       -0.84700
H          7.10100       14.55100       -1.87200
C          7.42800       14.76800        0.24600
H          6.68100       15.48700        0.58300
H          8.37100       15.26300        0.01100
C          7.65800       13.65900        1.26900
H          6.70600       13.41600        1.74600
H          8.38900       13.95400        2.02200
C          8.15500       12.46600        0.43600
H          9.24400       12.45700        0.46700
C          7.64900       11.14900        1.05800
O          7.99600       10.83700        2.18800
N          6.83300       10.35600        0.37700
H          6.60800       10.54600       -0.58900
H          6.54800        9.49300        0.80800
