90
0 1
H          1.22800        8.82500        1.86300
C          1.68700        9.66300        1.34100
H          1.04100        9.97700        0.52200
H          2.65900        9.36500        0.95300
C          1.86200       10.81000        2.30800
O          1.51800       10.68500        3.47700
N          2.41600       11.91800        1.82100
H          2.73200       11.90400        0.86400
C          2.71400       13.12100        2.60800
H          2.06100       13.92800        2.27800
H          2.51200       12.93900        3.66400
C          4.17300       13.58700        2.46800
O          4.96800       12.92600        1.79200
N          4.55300       14.72300        3.08500
C          3.74400       15.50500        4.00900
H          3.21500       14.86800        4.72000
H          3.03700       16.11600        3.44800
C          4.73100       16.40300        4.75200
H          5.15000       15.86400        5.60300
H          4.26600       17.33400        5.07700
C          5.81900       16.64400        3.70500
H          6.77300       16.90700        4.16500
H          5.49900       17.43600        3.02600
C          5.88800       15.31700        2.94000
H          6.08700       15.52100        1.88700
C          7.01900       14.41800        3.46500
O          8.13600       14.48200        2.96100
N          6.73400       13.52400        4.41600
H          5.78400       13.48500        4.77100
C          7.67500       12.50900        4.89900
H          8.59000       13.02900        5.18700
C          7.11300       11.83500        6.17000
H          7.95600       11.36700        6.68100
H          6.72300       12.60100        6.84200
C          6.04400       10.73800        5.97500
H          6.43200        9.96700        5.31000
H          5.87000       10.26500        6.94200
C          4.68700       11.20800        5.44900
O          4.38400       12.38700        5.34300
N          3.82400       10.28700        5.08800
H          2.92600       10.59400        4.71800
H          4.03500        9.31300        5.18200
C          8.07900       11.48500        3.82000
O          9.06000       10.76800        4.00200
N          7.37800       11.43500        2.67700
H          6.58200       12.05500        2.56900
C          7.73500       10.59800        1.52700
H          7.69300        9.54900        1.82000
H          7.00600       10.76700        0.73400
C          9.13000       10.87800        0.95000
O          9.70500        9.99800        0.31400
N          9.72600       12.04300        1.24200
H          9.20300       12.73500        1.76400
C         11.13400       12.34700        0.92100
H         11.25700       12.23100       -0.15700
C         11.48500       13.81200        1.27100
H         12.51000       13.99100        0.94100
C         10.60200       14.77400        0.45600
H         10.67300       14.53400       -0.60500
H          9.56100       14.70600        0.77100
H         10.94500       15.79900        0.60200
C         11.40300       14.14300        2.78300
H         11.06800       15.17400        2.90700
H         10.67100       13.50300        3.27500
C         12.74600       14.02000        3.51300
H         13.47900       14.68600        3.05700
H         12.61500       14.30300        4.55800
H         13.11600       12.99600        3.47400
C         12.13500       11.37000        1.56300
O         13.25200       11.24500        1.07000
N         11.74000       10.62500        2.60400
H         10.81000       10.76500        2.98200
C         12.54200        9.53800        3.17300
H         13.52300        9.93600        3.43800
C         11.85200        9.05900        4.45600
H         12.46400        8.29200        4.93300
H         11.72900        9.89400        5.14600
H         10.87400        8.63800        4.21900
C         12.78100        8.36700        2.19200
O         13.68300        7.56400        2.41600
N         12.01100        8.27500        1.09900
H         11.27100        8.95600        0.97400
C         12.25300        7.33900       -0.00500
H         12.54100        6.36900        0.40200
H         11.32800        7.21500       -0.56600
C         13.34500        7.78000       -0.99200
O         13.62500        7.07100       -1.95000
N         13.96700        8.94100       -0.81600
H         14.68100        9.20300       -1.47200
H         13.73200        9.53600       -0.03400
