90
0 1
H          5.69200       11.48500       -5.09200
C          4.82900       12.14000       -5.19000
H          4.48600       12.44500       -4.20200
H          4.03400       11.61500       -5.71600
C          5.21300       13.36700       -5.98100
O          4.52200       13.73100       -6.92600
N          6.30500       14.01500       -5.58400
H          6.76500       13.69500       -4.74400
C          6.83200       15.23500       -6.20600
H          7.64200       14.97400       -6.88600
H          6.04700       15.72200       -6.78500
C          7.36500       16.23100       -5.16500
O          7.39300       15.90300       -3.97700
N          7.78000       17.45000       -5.56500
C          7.74500       17.96900       -6.92500
H          6.81500       17.71800       -7.43600
H          8.59800       17.58000       -7.48300
C          7.86600       19.48400       -6.78200
H          6.88000       19.91700       -6.60800
H          8.33700       19.93700       -7.65600
C          8.72800       19.63500       -5.52800
H          8.58300       20.60600       -5.05200
H          9.77800       19.49900       -5.79200
C          8.27400       18.47400       -4.63500
H          9.13200       18.08900       -4.08300
C          7.22100       18.93000       -3.60700
O          7.57600       19.38400       -2.52500
N          5.93100       18.77200       -3.91500
H          5.70800       18.42800       -4.84300
C          4.80600       18.98900       -2.99900
H          5.02000       19.89000       -2.42100
C          3.52900       19.25700       -3.82800
H          2.81500       19.75600       -3.17100
H          3.76200       19.95800       -4.63100
C          2.81000       18.02600       -4.42300
H          2.51100       17.36000       -3.61500
H          1.89300       18.36700       -4.90400
C          3.59900       17.22400       -5.46000
O          4.55400       17.67900       -6.07000
N          3.23100       15.98500       -5.68000
H          3.73500       15.43300       -6.36600
H          2.46500       15.58300       -5.15300
C          4.59800       17.84900       -1.97800
O          3.71000       17.94200       -1.13300
N          5.35300       16.74700       -2.07800
H          6.07900       16.73700       -2.78600
C          5.26200       15.55200       -1.22900
H          6.14500       14.93500       -1.39600
H          5.25700       15.86400       -0.18500
C          4.01900       14.68600       -1.47400
O          4.13500       13.48900       -1.72600
N          2.82600       15.28200       -1.42200
H          2.82000       16.27700       -1.22200
C          1.53800       14.59300       -1.57700
H          1.52200       13.74800       -0.88800
C          0.36700       15.53500       -1.19900
H          0.42000       16.42000       -1.83800
C         -0.99300       14.84900       -1.44200
H         -1.81000       15.53100       -1.21100
H         -1.10800       14.57400       -2.48900
H         -1.08600       13.95800       -0.81900
C          0.49000       15.99200        0.27600
H          0.39100       15.12700        0.93400
H          1.47600       16.42600        0.44100
C         -0.53300       17.05500        0.69800
H         -1.53800       16.63400        0.72500
H         -0.28500       17.41500        1.69700
H         -0.50500       17.89500        0.00300
C          1.39600       14.04500       -3.00500
O          1.33600       14.81000       -3.96900
N          1.29400       12.72200       -3.14400
H          1.40800       12.15700       -2.31700
C          1.09200       12.01400       -4.41300
H          1.75000       12.45900       -5.16000
C          1.53000       10.55500       -4.21200
H          1.46400       10.02000       -5.16000
H          2.56000       10.51800       -3.85700
H          0.88000       10.06500       -3.48500
C         -0.35400       12.15000       -4.95300
O         -1.06800       11.16300       -5.12100
N         -0.81400       13.38700       -5.16600
H         -0.17600       14.15100       -4.97600
C         -2.17600       13.73200       -5.59500
H         -2.18800       14.76100       -5.95500
H         -2.46700       13.07800       -6.41800
C         -3.22900       13.59900       -4.48700
O         -3.91500       14.55800       -4.16200
N         -3.34500       12.43900       -3.85800
H         -4.03100       12.35100       -3.12700
H         -2.76100       11.66300       -4.14200
