90
0 1
H         -3.42000       11.62900        1.04600
C         -2.76200       12.36900        0.59300
H         -1.76000       12.26900        1.00600
H         -3.14100       13.36800        0.79500
C         -2.73200       12.14800       -0.90100
O         -3.61800       11.50400       -1.44500
N         -1.71900       12.69800       -1.56700
H         -1.00700       13.17200       -1.03600
C         -1.56000       12.59200       -3.02300
H         -2.53300       12.73800       -3.49200
H         -0.90000       13.38700       -3.36800
C         -0.98700       11.24600       -3.50700
O         -0.50400       10.44700       -2.70100
N         -0.96000       10.99800       -4.83300
C         -1.46400       11.87800       -5.87900
H         -1.23800       12.92600       -5.68300
H         -2.54200       11.74000       -5.97800
C         -0.76700       11.42500       -7.15900
H          0.22200       11.88300       -7.22300
H         -1.35800       11.65500       -8.04600
C         -0.62700        9.92000       -6.94000
H          0.18100        9.50000       -7.54100
H         -1.57100        9.43000       -7.18700
C         -0.36800        9.79300       -5.43300
H         -0.89900        8.91600       -5.06000
C          1.12900        9.58200       -5.12700
O          1.65200        8.50100       -5.38400
N          1.81400       10.56000       -4.52500
H          1.33200       11.44400       -4.41800
C          3.15800       10.45600       -3.93100
H          3.81700       10.01500       -4.68000
C          3.69600       11.86200       -3.58800
H          3.20600       12.21300       -2.68000
H          4.76100       11.76200       -3.37600
C          3.53100       12.94300       -4.66700
H          4.36600       13.64000       -4.59000
H          3.55700       12.49600       -5.66200
C          2.23700       13.73000       -4.48200
O          1.18600       13.36400       -4.97800
N          2.23500       14.79300       -3.71200
H          1.37900       15.30700       -3.63700
H          3.06100       15.02900       -3.16600
C          3.20800        9.53500       -2.68100
O          3.74600        9.91400       -1.63800
N          2.59100        8.35000       -2.74200
H          2.18700        8.08300       -3.63500
C          2.49100        7.40300       -1.62200
H          1.94100        6.52300       -1.95400
H          3.49400        7.09300       -1.32600
C          1.77900        7.96500       -0.38400
O          2.11900        7.57200        0.72700
N          0.86700        8.93000       -0.57500
H          0.64600        9.14800       -1.53900
C          0.21800        9.82700        0.40400
H         -0.29800       10.56300       -0.21000
C         -0.91800        9.15000        1.21400
H         -1.43400        9.96000        1.73100
C         -1.94200        8.50800        0.25900
H         -2.84900        8.24000        0.80000
H         -2.21500        9.21300       -0.52800
H         -1.52400        7.61200       -0.20000
C         -0.46300        8.15400        2.30400
H         -0.14600        7.22000        1.84000
H          0.38200        8.57100        2.85000
C         -1.55500        7.83800        3.33300
H         -1.14300        7.18900        4.10700
H         -1.91000        8.75900        3.79700
H         -2.39000        7.32300        2.85800
C          1.16600       10.69200        1.25400
O          0.91900       11.88900        1.39000
N          2.26800       10.14200        1.76900
H          2.41100        9.15200        1.60600
C          3.23500       10.84100        2.61600
H          2.70100       11.29900        3.45000
C          4.20500        9.79500        3.17800
H          4.91600       10.27900        3.84800
H          3.65200        9.03800        3.73700
H          4.75100        9.31300        2.36500
C          3.99300       11.97000        1.88900
O          4.34700       12.96600        2.51200
N          4.20500       11.85400        0.57200
H          3.90800       11.00400        0.10400
C          4.80200       12.91000       -0.25500
H          5.62100       13.37300        0.29700
H          5.21600       12.46100       -1.15600
C          3.82800       14.02400       -0.66800
O          4.11000       14.77800       -1.59600
N          2.64600       14.11900       -0.07100
H          2.02500       14.86200       -0.33800
H          2.40500       13.48300        0.67700
