111
0 1
H         13.76000       11.34600        5.82200
C         13.04000       12.08600        5.47500
H         12.66300       12.65400        6.32400
H         12.21500       11.58900        4.96900
C         13.71700       13.02700        4.50800
O         13.65100       14.23900        4.68400
N         14.36500       12.46500        3.49000
H         14.45400       11.45700        3.48200
C         15.13200       13.20100        2.47000
H         15.78800       13.91200        2.97400
C         16.00100       12.20400        1.68600
H         15.35300       11.58100        1.06600
H         16.66300       12.75900        1.02000
C         16.83300       11.28900        2.55200
N         16.34100       10.20100        3.27800
C         17.39900        9.67300        3.90900
H         17.35600        8.80500        4.55500
N         18.51300       10.36900        3.62400
H         19.43700       10.16500        3.97700
C         18.17500       11.39500        2.76900
H         18.83200       12.14300        2.34700
C         14.27200       14.01600        1.49100
O         14.79000       14.91400        0.83500
N         12.97600       13.71400        1.39000
H         12.61500       12.98700        1.99200
C         11.98600       14.45500        0.60300
H         12.26400       15.51100        0.59300
C         11.97000       13.96700       -0.85700
H         12.94200       14.16100       -1.31100
H         11.78800       12.89200       -0.87400
C         10.90900       14.65700       -1.68100
N         10.77000       16.04100       -1.79400
C          9.63900       16.24400       -2.48600
H          9.22700       17.21700       -2.72000
N          9.06700       15.07200       -2.80400
H          8.17200       14.97400       -3.28300
C          9.85000       14.05600       -2.29800
H          9.64700       12.99600       -2.33600
C         10.60100       14.35100        1.25600
O         10.31900       13.39300        1.97700
N          9.73800       15.33500        0.99600
H         10.00100       16.01000        0.28500
C          8.41400       15.48000        1.60400
H          8.14600       14.54500        2.09800
C          8.46000       16.57400        2.68400
H          8.77800       17.51700        2.23700
H          7.46000       16.71400        3.09600
C          9.40000       16.21500        3.80800
N          9.08400       15.37600        4.88000
C         10.25000       15.11800        5.49300
H         10.36500       14.45100        6.33700
N         11.26200       15.73900        4.86800
H         12.25100       15.54900        5.03000
C         10.74500       16.44500        3.80700
H         11.30200       16.97400        3.04700
C          7.37300       15.76000        0.52200
O          7.45000       16.76600       -0.18100
N          6.40100       14.85600        0.38200
H          6.40200       14.05800        1.00300
C          5.41800       14.85600       -0.71800
H          5.43900       15.83100       -1.20700
C          5.83300       13.80200       -1.75900
H          6.91100       13.65400       -1.71800
H          5.36400       12.84500       -1.52500
C          5.49200       14.20100       -3.17100
N          6.29900       14.98900       -3.99600
C          5.61400       15.13800       -5.14000
H          5.96600       15.69900       -5.99600
N          4.43400       14.49800       -5.07000
H          3.73500       14.47200       -5.79900
C          4.33800       13.90400       -3.83200
H          3.50600       13.33900       -3.43300
C          3.97500       14.65700       -0.22400
O          3.07300       14.33700       -0.99300
N          3.77300       14.79600        1.08600
H          4.57100       15.06300        1.64100
C          2.58000       14.35800        1.82600
H          2.37300       13.31900        1.56000
C          2.89300       14.41300        3.33400
H          2.68100       15.42000        3.69800
H          2.23200       13.72300        3.86000
C          4.33100       14.08500        3.68400
N          5.02300       12.93400        3.29800
C          6.27500       13.07800        3.75900
H          7.06800       12.35100        3.63300
N          6.41000       14.26300        4.37500
H          7.28100       14.62200        4.77100
C          5.19800       14.91500        4.33500
H          4.97200       15.89600        4.73000
C          1.31800       15.16600        1.48600
O          0.20200       14.70800        1.70600
N          1.50600       16.36000        0.92400
H          2.46600       16.66000        0.79800
C          0.48700       17.23900        0.34300
H         -0.39000       17.25300        0.99100
C          1.09300       18.65200        0.28100
H          0.38800       19.33100       -0.20000
H          1.25100       19.00900        1.29900
C          2.41800       18.70600       -0.44600
N          3.64200       18.27500        0.07700
C          4.54900       18.48000       -0.89000
H          5.60700       18.27100       -0.79700
N          3.95700       18.97900       -1.98900
H          4.43000       19.21100       -2.85000
C          2.61100       19.12700       -1.72900
H          1.84500       19.49400       -2.39900
C          0.00200       16.80200       -1.05200
O         -0.87600       17.43700       -1.62500
N          0.55500       15.75400       -1.64900
H          0.21200       15.48200       -2.55300
H          1.30300       15.24500       -1.19700
