92
1 1
H         -8.60900       15.59400       -3.90700
C         -7.92500       15.63400       -3.06000
H         -8.42000       15.21800       -2.18200
H         -7.64300       16.66700       -2.86200
C         -6.69600       14.81600       -3.36900
O         -6.39200       13.86400       -2.66200
N         -5.95300       15.21000       -4.40500
H         -6.27600       16.01500       -4.92100
C         -4.83100       14.44000       -4.98600
H         -5.25600       13.49100       -5.31000
C         -4.31400       15.18100       -6.24600
H         -5.18400       15.46600       -6.84100
C         -3.56700       16.47500       -5.87200
H         -4.19200       17.11500       -5.24900
H         -2.64100       16.24600       -5.34300
H         -3.31700       17.02700       -6.77900
C         -3.40200       14.33900       -7.16600
H         -3.10800       14.95600       -8.01700
H         -2.49300       14.05300       -6.64200
C         -4.07500       13.07900       -7.72300
H         -5.00600       13.34400       -8.22600
H         -3.40800       12.60300       -8.44200
H         -4.28100       12.36900       -6.92300
C         -3.70000       14.07800       -3.99700
O         -2.90100       13.18000       -4.26300
N         -3.66700       14.68900       -2.80300
H         -4.39000       15.37100       -2.62600
C         -2.79900       14.28800       -1.68300
H         -1.77200       14.36300       -2.03300
C         -2.99800       15.28000       -0.51500
H         -2.73500       16.28200       -0.85600
H         -4.05600       15.28800       -0.24400
C         -2.19000       14.97400        0.76400
H         -2.45100       15.71600        1.52000
H         -2.51200       14.01100        1.16000
C         -0.65800       14.99100        0.58600
H         -0.36800       14.69100       -0.42000
H         -0.30600       16.01300        0.74000
C          0.03300       14.06300        1.59700
H          1.07400       14.38200        1.71100
H         -0.46200       14.16700        2.56700
N          0.00000       12.65100        1.14000
H          0.58900       12.53800        0.31500
H          0.31300       12.00300        1.84700
H         -0.92800       12.38700        0.81200
C         -2.98500       12.82000       -1.25200
O         -2.07100       12.27800       -0.63400
N         -4.09400       12.15400       -1.59600
H         -4.85300       12.66200       -2.04000
C         -4.22800       10.69100       -1.41800
H         -4.00000       10.45300       -0.37900
C         -5.66400       10.19200       -1.68800
H         -5.68600        9.12200       -1.48100
C         -6.66400       10.85500       -0.73300
H         -6.74100       11.92300       -0.93000
H         -7.64700       10.40200       -0.86400
H         -6.34800       10.69900        0.29900
C         -6.13200       10.38800       -3.13700
H         -5.52400        9.79000       -3.81500
H         -7.16500       10.05300       -3.23300
H         -6.07500       11.43500       -3.42600
C         -3.22500        9.89200       -2.26400
O         -2.77100        8.84600       -1.81800
N         -2.84300       10.39200       -3.44600
H         -3.23500       11.27400       -3.74300
C         -1.86100        9.76300       -4.33400
H         -1.80500        8.69400       -4.11600
C         -2.35700        9.92800       -5.77600
H         -1.67200        9.41800       -6.45500
H         -3.34900        9.48700       -5.88100
H         -2.39800       10.98500       -6.04100
C         -0.44000       10.33700       -4.16800
O          0.54100        9.61300       -4.31200
N         -0.30800       11.63500       -3.85800
H         -1.14900       12.19700       -3.81800
C          1.00000       12.28600       -3.64900
H          1.67300       11.95000       -4.44000
C          0.90000       13.82200       -3.76800
H          0.20300       14.19700       -3.01900
C          2.25500       14.51200       -3.55900
H          2.62500       14.34000       -2.54900
H          2.98400       14.13400       -4.27700
H          2.14900       15.58800       -3.69900
C          0.39300       14.23900       -5.15500
H         -0.59000       13.81400       -5.34300
H          0.31300       15.32500       -5.21200
H          1.08000       13.89100       -5.92600
C          1.61100       11.84000       -2.31400
O          1.34900       12.41400       -1.25600
N          2.42300       10.79400       -2.33300
H          2.52200       10.26700       -3.19000
H          2.83300       10.46600       -1.47600
