50
0 1
H         -2.55200       -1.35900       -3.40400
C         -2.19300       -1.98000       -2.58400
H         -2.78600       -2.89100       -2.53600
H         -2.27600       -1.42900       -1.64900
C         -0.74500       -2.33300       -2.83600
O         -0.18500       -1.91700       -3.84000
N         -0.15000       -3.09700       -1.91300
H         -0.73400       -3.36300       -1.13500
C          1.24500       -3.60000       -1.89200
H          1.36300       -4.10300       -0.93300
C          1.42200       -4.68200       -2.98500
H          0.74400       -5.51000       -2.77400
H          1.13500       -4.25800       -3.94900
C          2.84900       -5.24100       -3.14300
H          2.85000       -5.97500       -3.94900
H          3.48600       -4.42100       -3.46600
C          3.43000       -5.90800       -1.87700
H          3.12800       -5.36900       -0.98100
H          3.03300       -6.92100       -1.80100
C          4.96500       -5.96800       -1.88500
H          5.30100       -6.48500       -0.98300
H          5.30200       -6.53800       -2.75500
N          5.56000       -4.61400       -1.92100
H          6.57900       -4.59400       -1.80800
H          5.41400       -4.16000       -2.81900
H          5.20000       -3.96900       -1.22300
C          2.37400       -2.54300       -1.88500
O          3.39000       -2.79900       -1.24200
N          2.21300       -1.37900       -2.51100
H          1.39800       -1.27800       -3.10400
C          3.20400       -0.29700       -2.50400
H          2.71200        0.63900       -2.76800
H          3.62400       -0.18800       -1.50300
C          4.34300       -0.52400       -3.50000
O          4.17400       -0.29500       -4.69400
N          5.51100       -0.94100       -3.01300
H          5.58100       -1.17300       -2.02500
C          6.68400       -1.25400       -3.83700
H          6.88400       -0.40400       -4.48900
C          7.91200       -1.46300       -2.93000
H          8.77900       -1.71100       -3.54400
H          8.12800       -0.53100       -2.40500
C          7.66700       -2.56800       -1.90200
O          8.11300       -3.71300       -2.13700
O          6.85600       -2.35300       -0.97300
C          6.45300       -2.49200       -4.73100
O          5.68500       -3.40000       -4.40900
N          7.14200       -2.57400       -5.86100
H          7.77900       -1.84000       -6.12000
H          7.00300       -3.38100       -6.44500
