82
2 1
H          2.73900       15.97900       -2.92800
C          2.98700       17.01600       -2.70900
H          2.36100       17.67600       -3.30900
H          4.03300       17.19300       -2.95600
C          2.76400       17.29600       -1.24300
O          3.69500       17.67100       -0.53200
N          1.52400       17.12900       -0.77200
H          0.80700       16.89200       -1.44300
C          1.12500       17.40100        0.62700
H          2.02500       17.55500        1.21700
C          0.30900       18.70900        0.69800
H         -0.43000       18.71800       -0.10500
H         -0.23100       18.76400        1.64600
C          1.21300       19.95100        0.57800
H          1.89400       19.82300       -0.26300
H          0.58800       20.81800        0.35700
C          2.00300       20.24400        1.87000
H          1.44100       20.98100        2.44700
H          2.08800       19.35200        2.49300
C          3.40600       20.80300        1.59400
H          3.34000       21.55400        0.80000
H          3.75800       21.30500        2.50000
N          4.36500       19.73000        1.22400
H          4.43000       19.03500        1.96600
H          4.05800       19.21300        0.40200
H          5.28800       20.09700        1.04400
C          0.44800       16.23600        1.35900
O          0.33500       16.29900        2.57900
N          0.09900       15.14600        0.66800
H          0.25600       15.13600       -0.32500
C         -0.35900       13.90400        1.30300
H         -1.27500       14.12600        1.85300
C         -0.68200       12.87000        0.20600
H         -1.46400       13.27400       -0.44000
H          0.21300       12.72400       -0.40200
C         -1.13300       11.48900        0.72500
H         -0.36000       11.07100        1.36900
C         -2.44400       11.56900        1.51100
H         -2.75200       10.56500        1.80700
H         -2.32000       12.16400        2.41300
H         -3.22800       12.00500        0.89100
C         -1.33900       10.54100       -0.45400
H         -2.12000       10.91800       -1.11500
H         -0.41000       10.43800       -1.01600
H         -1.62900        9.55500       -0.08900
C          0.69800       13.39000        2.29900
O          1.87100       13.27600        1.94300
N          0.28100       13.12400        3.54300
H         -0.70500       13.25200        3.71500
C          1.09600       12.80200        4.72900
H          0.39900       12.73100        5.56500
C          1.71500       11.40600        4.56700
H          0.93400       10.67700        4.34400
H          2.44600       11.40100        3.75700
H          2.21100       11.11300        5.49300
C          2.13100       13.87600        5.15100
O          2.18500       14.23700        6.33000
N          2.94800       14.37000        4.21100
H          2.82600       13.94500        3.29900
C          3.82400       15.56100        4.28600
H          3.36800       16.29600        4.95100
C          5.23300       15.20400        4.82300
H          5.63200       14.33600        4.29300
H          5.89100       16.04500        4.59800
C          5.31300       14.98700        6.34600
H          6.27000       15.37400        6.70000
H          4.53000       15.57700        6.82300
C          5.22600       13.50800        6.76800
H          4.45600       12.99500        6.19600
H          6.17500       13.02500        6.52800
C          4.94300       13.32100        8.26800
H          4.91600       12.24500        8.47100
H          5.76800       13.74700        8.84600
N          3.65300       13.93800        8.67500
H          3.34100       13.59400        9.57400
H          3.74000       14.94400        8.72000
H          2.93600       13.75600        7.97300
C          3.96800       16.26700        2.92400
O          4.20900       17.47100        2.87100
N          3.80900       15.57500        1.80500
H          3.93500       16.05200        0.92500
H          3.57000       14.59400        1.83100
