106
1 1
H          7.00800       22.42700       -2.00900
C          6.00100       22.30000       -2.40600
H          5.98100       22.61500       -3.44700
H          5.30700       22.90100       -1.82100
C          5.61600       20.84300       -2.30700
O          6.40100       20.02400       -1.84700
N          4.40500       20.50100       -2.75700
H          3.83100       21.24200       -3.13000
C          3.83500       19.13800       -2.70600
H          4.08900       18.72000       -1.72900
C          2.29800       19.23100       -2.79600
H          1.94400       20.06400       -2.18600
H          2.02000       19.43800       -3.83000
C          1.61300       17.94700       -2.28600
H          2.24900       17.07800       -2.45100
H          1.47800       18.03900       -1.20700
C          0.24200       17.68900       -2.93400
H         -0.22100       16.84000       -2.42800
H         -0.39700       18.55900       -2.77100
C          0.30000       17.39000       -4.44300
H         -0.71800       17.18900       -4.78800
H          0.67300       18.26700       -4.97700
N          1.15700       16.22100       -4.74200
H          2.14700       16.41800       -4.59200
H          0.92600       15.43800       -4.13200
H          1.03300       15.86700       -5.68400
C          4.44400       18.18200       -3.75600
O          3.71300       17.56700       -4.53500
N          5.77600       18.07600       -3.79500
H          6.30100       18.62900       -3.12500
C          6.52900       17.30400       -4.79600
H          6.17900       17.62500       -5.77900
C          8.03100       17.65900       -4.71600
H          8.46400       17.38700       -5.68000
H          8.13900       18.74000       -4.61400
C          8.87600       16.95900       -3.62700
H          8.77400       15.87900       -3.72400
C         10.35000       17.31000       -3.82800
H         10.95900       16.79200       -3.08700
H         10.67400       16.99600       -4.82000
H         10.50000       18.38600       -3.72500
C          8.49300       17.36400       -2.20200
H          7.47700       17.05900       -1.97100
H          9.16200       16.87800       -1.49200
H          8.58300       18.44500       -2.08400
C          6.28200       15.78600       -4.73400
O          6.34800       15.11600       -5.76000
N          5.94200       15.24600       -3.55800
H          5.90700       15.85000       -2.75300
C          5.42300       13.87600       -3.42800
H          6.12700       13.18800       -3.89800
C          5.26000       13.47000       -1.95000
H          4.62900       14.20300       -1.44500
C          4.61000       12.08800       -1.80300
H          4.57300       11.81000       -0.74900
H          3.58800       12.10900       -2.18000
H          5.18800       11.33900       -2.34600
C          6.62200       13.43600       -1.24500
H          7.28100       12.71700       -1.73400
H          7.09000       14.42000       -1.26900
H          6.49200       13.14700       -0.20200
C          4.09400       13.80200       -4.17900
O          3.16800       14.55000       -3.86900
N          4.01100       12.93700       -5.19200
H          4.83400       12.38600       -5.39500
C          3.04100       13.06700       -6.29000
H          3.24400       14.00800       -6.80500
C          3.26800       11.92000       -7.29200
H          2.79200       11.02000       -6.89900
H          2.76700       12.17000       -8.22800
C          4.72400       11.59700       -7.59400
C          5.19300       10.27600       -7.45600
H          4.51600        9.48300       -7.16900
C          6.54700        9.97700       -7.69200
H          6.90400        8.96100       -7.59200
C          7.43800       10.99800       -8.06200
H          8.48000       10.76900       -8.24400
C          6.97500       12.31800       -8.20000
H          7.66100       13.10600       -8.48000
C          5.62100       12.61700       -7.97100
H          5.28000       13.63800       -8.07200
C          1.57100       13.09800       -5.84200
O          0.78800       13.90700       -6.34100
N          1.21700       12.25600       -4.87000
H          1.94100       11.66100       -4.49800
C         -0.15000       12.00300       -4.40300
H         -0.74200       11.70400       -5.26800
C         -0.11400       10.81800       -3.42100
H          0.24900       11.17800       -2.45600
H         -1.12900       10.44700       -3.27200
C          0.76600        9.66500       -3.87600
C          0.40500        8.90200       -5.00400
H         -0.52200        9.10000       -5.52200
C          1.25400        7.88100       -5.46600
H          0.97300        7.29200       -6.32900
C          2.46500        7.61800       -4.80300
H          3.11300        6.82500       -5.15500
C          2.82700        8.37400       -3.67500
H          3.75300        8.16200       -3.15900
C          1.97900        9.39600       -3.21200
H          2.26300        9.96800       -2.34100
C         -0.84600       13.22700       -3.77300
O         -0.21700       14.20900       -3.38400
N         -2.16600       13.18700       -3.65000
H         -2.68400       12.38100       -3.96100
H         -2.63300       13.97000       -3.22200
