131
0 1
H         -0.80000       16.49600        1.59300
C          0.13300       16.78500        1.11200
H          0.60600       17.58500        1.68000
H         -0.06200       17.12500        0.09700
C          1.06500       15.59600        1.07000
O          2.15400       15.65200        1.63100
N          0.63200       14.52300        0.40500
H         -0.26600       14.58000       -0.05500
C          1.40100       13.28700        0.18800
H          2.46500       13.52700        0.22300
C          1.09900       12.24700        1.28400
H          0.02000       12.12900        1.39800
H          1.52300       11.29400        0.96900
C          1.73000       12.63000        2.63000
H          2.78100       12.83100        2.45400
H          1.27000       13.54400        3.00500
C          1.59500       11.55000        3.71400
H          0.59500       11.61500        4.14500
H          1.71800       10.55400        3.29200
C          2.64000       11.77400        4.81700
H          2.67600       12.84300        5.04700
H          2.33100       11.24200        5.72000
N          3.98700       11.30700        4.40800
H          4.20300       11.56300        3.44300
H          4.71600       11.72400        4.98400
H          4.06700       10.29300        4.42700
C          1.12900       12.71300       -1.20500
O          0.01700       12.83300       -1.71300
N          2.16000       12.11900       -1.80400
H          3.02400       12.08100       -1.27000
C          2.16300       11.51900       -3.14500
H          1.13600       11.29200       -3.43700
C          2.76100       12.49900       -4.17800
H          3.79600       12.72500       -3.91500
H          2.78400       11.96500       -5.12900
C          1.97900       13.81500       -4.38100
H          0.92900       13.66400       -4.13300
C          2.54600       14.96500       -3.54000
H          3.57700       15.16900       -3.82900
H          1.94600       15.86100       -3.69600
H          2.52000       14.71500       -2.48300
C          2.05600       14.25700       -5.84400
H          3.09500       14.40600       -6.13800
H          1.60600       13.49500       -6.48100
H          1.50500       15.18800       -5.97800
C          2.94000       10.19000       -3.18200
O          2.51200        9.26100       -3.85900
N          4.04700       10.08000       -2.43600
H          4.33000       10.88500       -1.88300
C          4.76200        8.80800       -2.18600
H          4.41400        8.06400       -2.90200
C          6.28400        8.94600       -2.39100
H          6.72600        7.96000       -2.25600
C          6.61500        9.40000       -3.81800
H          6.25600       10.41500       -3.98900
H          7.69400        9.37300       -3.97100
H          6.14100        8.72800       -4.53500
C          6.96000        9.89800       -1.39600
H          6.77400        9.57000       -0.37500
H          8.03600        9.89500       -1.56900
H          6.58300       10.91200       -1.52700
C          4.44900        8.23400       -0.80000
O          4.69300        7.05900       -0.54600
N          3.87500        9.04800        0.08800
H          3.85200       10.03200       -0.16600
C          3.34100        8.73700        1.41900
H          2.95600        9.68300        1.78500
C          2.12800        7.79400        1.31800
H          2.43000        6.85600        0.85100
H          1.79100        7.55500        2.32800
C          0.95800        8.38400        0.54600
C         -0.10400        9.00000        1.23700
H         -0.11300        9.01300        2.31600
C         -1.15100        9.61300        0.52500
H         -1.96200       10.09200        1.05400
C         -1.14000        9.61200       -0.88100
H         -1.93400       10.09900       -1.43100
C         -0.09700        8.97500       -1.57400
H         -0.09000        8.96500       -2.65600
C          0.94300        8.35400       -0.86200
H          1.73900        7.86600       -1.40700
C          4.35900        8.30900        2.48900
O          4.15800        8.64300        3.66000
N          5.45900        7.64000        2.13300
H          5.53400        7.34300        1.16500
C          6.48500        7.19800        3.08700
H          5.98700        6.93500        4.02100
C          7.15200        5.91300        2.56200
H          7.74100        5.48200        3.37300
H          6.37400        5.18700        2.32100
C          8.06400        6.08400        1.35800
C          9.40400        6.48100        1.53600
H          9.78700        6.66800        2.53000
C         10.25100        6.63400        0.42300
H         11.27800        6.94100        0.56500
C          9.76400        6.38800       -0.87200
H         10.41500        6.50400       -1.72700
C          8.43300        5.97300       -1.05100
H          8.06000        5.76600       -2.04400
C          7.58800        5.81700        0.06100
H          6.57200        5.47800       -0.08400
C          7.53800        8.26500        3.45200
O          8.29000        8.04900        4.39800
N          7.62400        9.38700        2.72300
H          6.95600        9.52000        1.97900
C          8.77600       10.30400        2.79700
H          9.50400        9.91800        3.51300
C          9.45200       10.31900        1.42100
H          8.79000       10.77400        0.68500
H         10.37200       10.90200        1.47500
H          9.69800        9.30400        1.11100
C          8.45300       11.74200        3.24500
O          9.32600       12.44200        3.75200
N          7.22700       12.22000        3.03500
H          6.53000       11.61500        2.61400
C          6.85300       13.61300        3.30300
H          7.69100       14.24700        3.00600
C          5.63000       14.05300        2.46900
H          4.71600       13.76100        2.98300
H          5.63800       15.14300        2.44400
C          5.57600       13.54500        1.01200
H          4.98100       14.25500        0.43500
H          6.58300       13.54000        0.59000
C          4.93500       12.15300        0.86100
O          4.43000       11.83700       -0.23800
O          4.90500       11.37700        1.84700
C          6.59000       13.83800        4.80200
O          5.78800       13.13400        5.41700
N          7.21700       14.83700        5.40800
H          7.89700       15.38600        4.90800
H          7.05300       14.97800        6.39100
