131
0 1
H          5.34900        9.57600        8.56600
C          5.48500       10.37700        9.29100
H          5.94200        9.98300       10.19700
H          4.52000       10.82100        9.53200
C          6.38100       11.44000        8.69900
O          5.96100       12.58300        8.55600
N          7.60900       11.05400        8.34600
H          7.85100       10.07900        8.45900
C          8.64000       11.92100        7.75500
H          8.15200       12.77100        7.26900
C          9.58300       12.43400        8.86500
H          9.03700       12.52800        9.80500
H         10.37400       11.69900        9.02300
C         10.22100       13.79100        8.52700
H         11.16300       13.88500        9.06900
H         10.43700       13.84800        7.46000
C          9.30200       14.94500        8.95400
H          8.27800       14.74800        8.63300
H          9.30200       14.99900       10.04400
C          9.76600       16.29500        8.39800
H          9.30600       17.08800        8.99200
H         10.85200       16.37600        8.48400
N          9.35100       16.46000        6.99200
H          8.35400       16.29500        6.88400
H          9.54100       17.38400        6.62200
H          9.78800       15.79000        6.35500
C          9.42800       11.15100        6.69200
O          9.66400        9.95700        6.86100
N          9.84400       11.83300        5.62800
H          9.55600       12.80600        5.57000
C         10.62300       11.28900        4.50600
H         11.12200       10.37000        4.81500
C          9.66700       10.97800        3.33300
H          9.14300       11.89900        3.07500
H         10.26600       10.68900        2.46800
C          8.62000        9.87600        3.58200
H          8.03900       10.10800        4.47400
C          7.65400        9.81600        2.39700
H          6.89800        9.05300        2.57800
H          7.15700       10.77900        2.28100
H          8.19700        9.57700        1.48300
C          9.25700        8.49500        3.74100
H          9.89500        8.47900        4.62400
H          8.48000        7.74300        3.87000
H          9.85500        8.25200        2.86200
C         11.72700       12.24700        4.02100
O         12.72900       11.79200        3.47500
N         11.55300       13.56200        4.19500
H         10.70500       13.87500        4.66100
C         12.41400       14.61900        3.64000
H         13.41200       14.20300        3.49800
C         11.89500       15.11200        2.25800
H         11.07600       15.81400        2.42000
C         12.99700       15.83200        1.45900
H         13.19100       16.82300        1.86300
H         13.91300       15.24000        1.45600
H         12.68100       15.97600        0.42600
C         11.36000       13.99500        1.34600
H         12.12900       13.23700        1.19300
H         10.47800       13.53900        1.79200
H         11.06100       14.40500        0.38200
C         12.52800       15.78900        4.63000
O         11.75500       15.91900        5.57800
N         13.48000       16.68900        4.39800
H         14.08700       16.53000        3.60700
C         13.60900       17.99500        5.05900
H         13.42300       17.85800        6.12400
C         15.06900       18.46500        4.90300
H         15.16800       19.49900        5.23700
H         15.68500       17.86500        5.57400
C         15.63400       18.33100        3.49700
C         16.40200       17.20000        3.15400
H         16.62000       16.44600        3.89700
C         16.88800       17.04500        1.84400
H         17.47700       16.17600        1.58300
C         16.61400       18.02300        0.87300
H         16.98900       17.90600       -0.13400
C         15.85600       19.15600        1.21400
H         15.64900       19.90900        0.46800
C         15.36200       19.30900        2.52200
H         14.77000       20.17700        2.77700
C         12.56100       19.03800        4.58500
O         12.83500       20.23700        4.57600
N         11.36100       18.60100        4.18200
H         11.15600       17.61400        4.27600
C         10.24100       19.46300        3.78100
H         10.56700       20.50200        3.76600
C          9.80300       19.09000        2.34900
H          9.40300       18.07600        2.36300
H          8.99400       19.75200        2.04300
C         10.86200       19.17500        1.26000
C         10.84500       18.23900        0.20700
H         10.11100       17.44600        0.20200
C         11.77800       18.33100       -0.84200
H         11.76100       17.60800       -1.64500
C         12.73000       19.36400       -0.84700
H         13.44700       19.43600       -1.65400
C         12.74400       20.30800        0.19300
H         13.46900       21.11000        0.18700
C         11.81500       20.21500        1.24400
H         11.83800       20.95200        2.03200
C          9.09200       19.40700        4.81200
O          9.29200       19.00900        5.96000
N          7.89400       19.86100        4.43100
H          7.79000       20.17200        3.48000
C          6.70700       19.93400        5.29100
H          7.03600       20.12300        6.31400
C          5.88200       21.14800        4.83700
H          6.50000       22.04700        4.85400
H          5.50000       20.98400        3.82900
H          5.03900       21.29200        5.51500
C          5.85700       18.64000        5.34300
O          4.74500       18.66300        5.86500
N          6.32700       17.52300        4.77800
H          7.28100       17.50800        4.42500
C          5.61400       16.23700        4.80200
H          4.54800       16.45200        4.72000
C          5.99700       15.40600        3.55700
H          5.16000       14.74500        3.32900
H          6.09500       16.08500        2.70800
C          7.26200       14.52900        3.62300
H          6.99700       13.60300        4.13800
H          7.55200       14.25600        2.60600
C          8.46200       15.15900        4.33800
O          9.07600       14.45400        5.17100
O          8.78200       16.34700        4.11500
C          5.80700       15.47800        6.13200
O          6.66100       15.82000        6.94400
N          5.04400       14.42100        6.37500
H          4.34200       14.12800        5.71900
H          5.21200       13.90400        7.23200
