106
1 1
H          7.11000        9.10200        1.56700
C          6.10400        9.34900        1.90500
H          5.89100        8.81200        2.82800
H          5.38800        9.06200        1.13600
C          6.01600       10.83700        2.14700
O          6.99800       11.54800        1.97400
N          4.84600       11.31100        2.59000
H          4.11200       10.63400        2.73200
C          4.50200       12.74100        2.77100
H          4.73300       13.23800        1.82800
C          2.98900       12.87600        3.05800
H          2.66600       12.03900        3.68000
H          2.77800       13.77800        3.63200
C          2.12000       12.91800        1.79100
H          2.27800       11.99900        1.22500
H          1.07500       12.93500        2.10500
C          2.35400       14.11800        0.85200
H          3.32100       14.02800        0.35400
H          1.59800       14.05800        0.06800
C          2.22700       15.50600        1.50800
H          1.82900       16.18700        0.75000
H          1.51000       15.46500        2.33200
N          3.53000       16.05100        1.96200
H          3.92600       15.57500        2.77000
H          4.22800       15.98000        1.21900
H          3.48100       17.04700        2.15400
C          5.33800       13.53800        3.79000
O          5.01400       14.70200        4.02000
N          6.41200       12.96100        4.33300
H          6.61400       12.02000        4.03500
C          7.50600       13.69700        4.97300
H          7.09700       14.30800        5.78000
C          8.48100       12.66900        5.58100
H          7.90800       12.07500        6.29500
H          8.83500       11.99000        4.80300
C          9.69400       13.28400        6.31400
H          9.42700       14.26200        6.71200
C         10.10400       12.39000        7.48600
H         10.37200       11.39500        7.12900
H         10.96000       12.82700        8.00200
H          9.28200       12.31100        8.19700
C         10.92000       13.41800        5.40400
H         11.21400       12.44200        5.01700
H         10.71100       14.08700        4.57300
H         11.75000       13.83900        5.97200
C          8.18800       14.65800        3.98000
O          8.57400       15.75800        4.36800
N          8.26500       14.30400        2.68700
H          7.93900       13.38500        2.40600
C          8.53900       15.30500        1.64100
H          9.41800       15.86900        1.95100
C          8.87300       14.68900        0.26400
H          9.23500       15.50200       -0.36500
C         10.01000       13.66800        0.38400
H         10.34000       13.36700       -0.61000
H         10.85500       14.11200        0.91100
H          9.67300       12.78300        0.92500
C          7.69600       14.03400       -0.47000
H          6.96100       14.78800       -0.75000
H          8.05000       13.55600       -1.38300
H          7.22300       13.28700        0.16200
C          7.35600       16.27500        1.58300
O          6.20400       15.85100        1.47900
N          7.61700       17.57800        1.71900
H          8.57700       17.85400        1.84700
C          6.57900       18.57000        2.04100
H          6.11200       18.27300        2.98200
C          7.24100       19.94100        2.27000
H          6.47100       20.64600        2.58600
H          7.94500       19.85200        3.09900
C          7.97200       20.52400        1.07100
C          9.33500       20.23700        0.86100
H          9.87700       19.62100        1.56400
C         10.00700       20.77300       -0.25300
H         11.05700       20.56200       -0.40500
C          9.32200       21.60200       -1.15700
H          9.84300       22.02400       -2.00600
C          7.96300       21.89600       -0.94800
H          7.44100       22.54700       -1.63600
C          7.29100       21.36300        0.16600
H          6.25000       21.60600        0.32900
C          5.45500       18.65000        0.99200
O          4.27900       18.71400        1.35400
N          5.80600       18.57100       -0.29300
H          6.78800       18.46300       -0.49600
C          4.89000       18.60800       -1.43600
H          4.23900       19.47600       -1.32500
C          5.72700       18.80900       -2.71200
H          5.07600       18.77100       -3.58600
H          6.15200       19.81400       -2.68300
C          6.86200       17.81500       -2.90000
C          8.17300       18.16400       -2.51800
H          8.37600       19.14100       -2.10300
C          9.22800       17.25200       -2.69200
H         10.23500       17.52800       -2.41000
C          8.97800       15.98700       -3.25000
H          9.79100       15.28700       -3.39300
C          7.67200       15.63300       -3.63100
H          7.48200       14.66100       -4.06400
C          6.61500       16.54500       -3.45500
H          5.61600       16.26600       -3.75600
C          3.97200       17.37000       -1.53100
O          4.12300       16.37900       -0.82100
N          2.97800       17.40900       -2.41000
H          2.38200       16.60300       -2.49800
H          2.84900       18.21800       -2.99600
