131
0 1
H          6.91900       10.61400       -6.88600
C          7.85300       10.05700       -6.92600
H          8.01600        9.68900       -7.93900
H          7.81200        9.21600       -6.23600
C          8.99700       10.96500       -6.54000
O          9.90900       11.18100       -7.33700
N          8.95000       11.50600       -5.32000
H          8.17100       11.26700       -4.72200
C          9.98800       12.37800       -4.74500
H         10.93000       12.16600       -5.23400
C          9.62800       13.86900       -4.93400
H          8.63100       14.02600       -4.51900
H         10.31400       14.48300       -4.34600
C          9.62600       14.38800       -6.38900
H          9.26100       13.62100       -7.06600
H          8.91000       15.20900       -6.44400
C         10.96800       14.93400       -6.91000
H         10.89500       15.09600       -7.98600
H         11.12100       15.91100       -6.44800
C         12.20900       14.08800       -6.60600
H         13.10400       14.64400       -6.89800
H         12.27800       13.93300       -5.52500
N         12.22800       12.77600       -7.28800
H         11.30600       12.40100       -7.48600
H         12.83500       12.79500       -8.10200
H         12.67800       12.12500       -6.64200
C         10.21500       12.06900       -3.26600
O          9.26000       11.98000       -2.49800
N         11.48000       11.93700       -2.87700
H         12.19700       11.98000       -3.60000
C         11.92700       12.01200       -1.48600
H         11.23500       11.45700       -0.85300
C         13.34000       11.40200       -1.37000
H         14.02600       12.01900       -1.95300
H         13.65600       11.45000       -0.32700
C         13.47900        9.94500       -1.85300
H         13.23800        9.87900       -2.91300
C         14.92500        9.48700       -1.65900
H         15.04600        8.47900       -2.05500
H         15.59600       10.15400       -2.19900
H         15.18800        9.49300       -0.60100
C         12.57100        8.98800       -1.07700
H         11.52600        9.22500       -1.27400
H         12.75300        7.96500       -1.40700
H         12.77000        9.06000       -0.00800
C         11.93700       13.47400       -1.01200
O         11.92400       14.39700       -1.82200
N         12.08100       13.69400        0.29900
H         12.07400       12.90000        0.91900
C         12.27500       15.03600        0.89800
H         11.50600       15.68900        0.48600
C         12.07500       15.00600        2.42800
H         12.17700       16.02200        2.81100
C         10.66300       14.52700        2.79300
H         10.51300       14.62200        3.86800
H          9.92500       15.14700        2.28300
H         10.51800       13.48700        2.50500
C         13.10300       14.12000        3.14600
H         12.93600       14.17200        4.22200
H         13.01600       13.08400        2.82400
H         14.11200       14.48100        2.94200
C         13.61500       15.70900        0.53600
O         13.90200       16.80900        0.99700
N         14.44200       15.05400       -0.28300
H         14.13900       14.15400       -0.61100
C         15.59900       15.64700       -0.96300
H         16.08500       16.36600       -0.30200
C         16.58000       14.50200       -1.25500
H         16.87400       14.04600       -0.30800
H         16.06200       13.73700       -1.83600
C         17.84000       14.89700       -1.99900
C         18.91800       15.49000       -1.31600
H         18.84300       15.69100       -0.25700
C         20.09500       15.82500       -2.01200
H         20.92000       16.28500       -1.48700
C         20.19800       15.56000       -3.38900
H         21.10200       15.81800       -3.92400
C         19.12200       14.96800       -4.07300
H         19.19600       14.77100       -5.13300
C         17.94200       14.64900       -3.37900
H         17.10800       14.21000       -3.90300
C         15.20200       16.40400       -2.24900
O         15.90100       17.32600       -2.65900
N         14.07200       16.03400       -2.86400
H         13.55600       15.27500       -2.43600
C         13.41400       16.62000       -4.04200
H         12.57700       15.95900       -4.26200
C         12.80000       17.98100       -3.68100
H         13.60400       18.68700       -3.46600
H         12.26100       18.36200       -4.55000
C         11.83500       17.94600       -2.50800
C         10.53600       17.43100       -2.67800
H         10.22800       17.05600       -3.64300
C          9.63900       17.39700       -1.59500
H          8.64500       16.99600       -1.72900
C         10.03700       17.88500       -0.33800
H          9.34900       17.86200        0.49500
C         11.33400       18.39800       -0.16400
H         11.65300       18.75900        0.80400
C         12.23300       18.42500       -1.24500
H         13.23500       18.80500       -1.10000
C         14.21000       16.68600       -5.36100
O         13.58700       16.78300       -6.41800
N         15.54100       16.61500       -5.34700
H         15.99500       16.62500       -4.44200
C         16.38600       16.70600       -6.54000
H         15.82800       17.22200       -7.32300
C         17.59100       17.59100       -6.19300
H         18.17500       17.13900       -5.39300
H         18.22300       17.71700       -7.07200
H         17.24400       18.57200       -5.86500
C         16.80100       15.34500       -7.14500
O         17.52100       15.31700       -8.14200
N         16.39700       14.20700       -6.56800
H         15.78300       14.24700       -5.75600
C         16.80000       12.88000       -7.05400
H         17.82000       12.98300       -7.42700
C         16.88600       11.85900       -5.90000
H         17.53300       11.05000       -6.23900
H         17.39300       12.31800       -5.05300
C         15.58300       11.20400       -5.41000
H         15.18900       10.58700       -6.22100
H         15.83600       10.52700       -4.59200
C         14.48000       12.15700       -4.92900
O         13.29800       11.75200       -5.02300
O         14.75800       13.29300       -4.48800
C         15.95600       12.37700       -8.24200
O         14.74600       12.58400       -8.32900
N         16.57300       11.66200       -9.17400
H         17.56400       11.49900       -9.11600
H         16.03300       11.33200       -9.95700
