131
0 1
H          9.76000       16.54100        2.71900
C         10.51100       16.98100        2.06600
H         11.50100       16.63200        2.35300
H         10.46500       18.06500        2.14400
C         10.22700       16.56400        0.64300
O         11.05100       15.88600        0.03700
N          9.08300       17.01200        0.11800
H          8.46200       17.43900        0.80500
C          8.42800       16.67600       -1.16600
H          7.84100       15.77600       -0.99700
C          7.47900       17.85100       -1.48600
H          6.90700       18.10700       -0.59300
H          8.08600       18.72600       -1.72700
C          6.48600       17.63600       -2.64100
H          5.89300       18.54600       -2.74400
H          7.04200       17.51100       -3.57100
C          5.51500       16.45200       -2.49200
H          4.85100       16.46700       -3.35700
H          6.06600       15.51100       -2.52900
C          4.64200       16.51400       -1.22900
H          4.41600       17.55700       -0.99000
H          3.70100       15.99900       -1.44100
N          5.28700       15.84900       -0.07700
H          4.74300       15.91000        0.78600
H          5.46800       14.87000       -0.26700
H          6.14900       16.30300        0.23000
C          9.31000       16.35300       -2.38300
O          8.87600       15.57100       -3.22100
N         10.51100       16.92300       -2.48900
H         10.80700       17.49700       -1.71700
C         11.48900       16.63100       -3.54800
H         10.99500       16.76100       -4.51200
C         12.62100       17.67300       -3.42200
H         12.18000       18.66900       -3.48500
H         13.07000       17.56900       -2.43300
C         13.75000       17.57600       -4.46900
H         14.24900       16.61200       -4.38700
C         13.23700       17.76200       -5.89800
H         12.57500       16.93800       -6.16500
H         12.70100       18.70700       -5.98900
H         14.07700       17.75400       -6.59300
C         14.78600       18.66600       -4.19400
H         14.33100       19.65300       -4.28600
H         15.19000       18.54600       -3.18900
H         15.60500       18.58000       -4.90800
C         12.03000       15.18300       -3.51500
O         12.47400       14.67700       -4.54100
N         11.98900       14.51900       -2.35400
H         11.61700       15.01400       -1.55300
C         12.42300       13.11800       -2.17100
H         12.26600       12.59100       -3.11300
C         13.93500       13.06000       -1.86400
H         14.45900       13.58600       -2.66300
C         14.32200       13.73000       -0.53600
H         15.40800       13.73800       -0.43800
H         13.96800       14.76000       -0.51500
H         13.90200       13.18600        0.31000
C         14.45600       11.61900       -1.84700
H         15.54100       11.62200       -1.74500
H         14.02200       11.06100       -1.01700
H         14.19500       11.12600       -2.78400
C         11.58600       12.37300       -1.12600
O         11.24100       11.20900       -1.31600
N         11.16100       13.04500       -0.05400
H         11.46000       14.00500        0.06800
C         10.10000       12.56200        0.83100
H         10.15700       11.47500        0.90300
C         10.28300       13.12400        2.25100
H         10.06100       14.18800        2.22700
H          9.54800       12.64900        2.90100
C         11.65800       12.94000        2.88200
C         12.45500       11.80900        2.60100
H         12.10000       11.03900        1.93300
C         13.72600       11.67400        3.18700
H         14.33400       10.80800        2.96400
C         14.20600       12.66100        4.06500
H         15.18200       12.55400        4.51800
C         13.41000       13.78000        4.36300
H         13.77300       14.53300        5.04800
C         12.14000       13.91600        3.77600
H         11.52900       14.77300        4.01900
C          8.74600       12.89900        0.19200
O          8.05100       13.84200        0.57700
N          8.40200       12.15700       -0.86700
H          9.08000       11.47700       -1.19800
C          7.23200       12.42900       -1.71100
H          7.37500       13.40800       -2.17000
C          7.16600       11.39100       -2.84000
H          6.94500       10.41300       -2.40800
H          6.34300       11.65100       -3.50700
C          8.44100       11.30400       -3.66200
C          8.87700       12.41900       -4.40500
H          8.29500       13.32900       -4.41500
C         10.08500       12.36400       -5.12200
H         10.42800       13.23000       -5.67200
C         10.85900       11.19200       -5.10700
H         11.79400       11.15700       -5.64900
C         10.42500       10.07400       -4.37400
H         11.02800        9.17800       -4.35000
C          9.21900       10.13000       -3.65100
H          8.90500        9.27200       -3.07400
C          5.92100       12.49900       -0.90900
O          5.05500       13.31100       -1.23200
N          5.84000       11.78300        0.21500
H          6.60700       11.16200        0.42600
C          5.00700       12.14800        1.35800
H          4.50300       13.09500        1.16100
C          3.93000       11.07700        1.56200
H          4.39900       10.11500        1.77300
H          3.29300       11.35300        2.40400
H          3.31700       10.99300        0.66400
C          5.89200       12.34200        2.60500
O          6.79600       11.54500        2.85200
N          5.62000       13.39000        3.38300
H          4.97300       14.08800        3.03200
C          6.31500       13.73800        4.63100
H          6.80500       12.84500        5.02200
C          7.41200       14.78900        4.34900
H          8.06800       14.81100        5.22000
H          8.01400       14.45500        3.50600
C          6.96100       16.24100        4.08300
H          6.33300       16.59500        4.90200
H          7.85200       16.87200        4.08400
C          6.22700       16.42400        2.74900
O          6.82200       16.99800        1.80500
O          5.06600       15.96200        2.60000
C          5.34800       14.22500        5.72600
O          5.57100       13.98900        6.90600
N          4.24800       14.88000        5.37000
H          4.12100       15.15700        4.40600
H          3.62100       15.18700        6.09500
