131
0 1
H          9.42400       13.92100       -3.28800
C          9.45700       12.89900       -2.91200
H         10.48600       12.63900       -2.67100
H          9.06900       12.21400       -3.66400
C          8.61600       12.79800       -1.66300
O          7.69200       11.99300       -1.59800
N          8.89500       13.65300       -0.67800
H          9.63000       14.33700       -0.86000
C          8.23200       13.69800        0.64300
H          8.23900       12.68900        1.05800
C          9.02800       14.60900        1.59500
H          9.09900       15.59700        1.14500
H          8.49100       14.70300        2.54000
C         10.43700       14.07100        1.90200
H         10.34100       13.09000        2.36900
H         10.99900       13.94700        0.97700
C         11.22700       14.98700        2.85400
H         10.68400       15.05900        3.79800
H         12.19600       14.52900        3.06000
C         11.44400       16.41000        2.31500
H         10.46600       16.87600        2.17300
H         11.97900       17.00100        3.06300
N         12.18000       16.41900        1.03000
H         12.10800       17.32900        0.56700
H         13.13800       16.12600        1.09700
H         11.68800       15.85700        0.32900
C          6.74800       14.10200        0.60500
O          6.13500       14.24000        1.65700
N          6.13700       14.20800       -0.57700
H          6.69900       14.02800       -1.39400
C          4.68700       14.34600       -0.75700
H          4.34900       15.24000       -0.23200
C          4.36800       14.49100       -2.25700
H          4.73800       13.60400       -2.77400
H          3.28300       14.51500       -2.37900
C          4.96100       15.74300       -2.93200
H          6.04000       15.76300       -2.78100
C          4.69700       15.68700       -4.43700
H          5.14600       14.78900       -4.85900
H          3.62300       15.67800       -4.62900
H          5.13900       16.55900       -4.92000
C          4.35400       17.03700       -2.39000
H          4.60000       17.15900       -1.33500
H          4.76100       17.89200       -2.93000
H          3.27000       17.02500       -2.50400
C          3.91300       13.15800       -0.15600
O          2.79200       13.33700        0.30700
N          4.53600       11.97400       -0.06000
H          5.44600       11.87900       -0.49400
C          4.01000       10.81900        0.70300
H          2.99800       10.61500        0.35100
C          4.85400        9.55200        0.45400
H          4.39500        8.72600        0.99800
C          4.86100        9.17300       -1.03300
H          5.35900        8.21200       -1.16200
H          3.83600        9.08600       -1.39500
H          5.39000        9.92400       -1.62000
C          6.30500        9.68500        0.93300
H          6.32600        9.88700        2.00300
H          6.83500        8.75000        0.75500
H          6.81700       10.48700        0.40400
C          3.88600       11.08200        2.21600
O          3.19400       10.34900        2.91400
N          4.51800       12.14900        2.71300
H          5.08700       12.69000        2.07600
C          4.39800       12.69800        4.06800
H          3.67100       12.10800        4.62700
C          5.76000       12.60300        4.78200
H          6.39400       13.40700        4.40500
H          5.60700       12.78500        5.84700
C          6.51100       11.29000        4.62800
C          7.83300       11.28900        4.14100
H          8.31200       12.22200        3.88300
C          8.53200       10.07800        3.98900
H          9.54500       10.08000        3.61600
C          7.91000        8.86200        4.32400
H          8.44400        7.93000        4.20600
C          6.59100        8.85800        4.81100
H          6.10900        7.92400        5.06200
C          5.89300       10.07000        4.96500
H          4.87500       10.05900        5.32800
C          3.88100       14.15500        4.04300
O          4.09000       14.90400        4.99600
N          3.27400       14.57500        2.92300
H          3.10300       13.86800        2.21800
C          2.97200       15.95300        2.49900
H          2.55000       15.87900        1.49700
C          1.86500       16.55000        3.38400
H          0.99800       15.88800        3.35700
H          2.20900       16.59500        4.41700
C          1.42400       17.94000        2.96400
C          0.49900       18.09900        1.91500
H          0.09600       17.23100        1.41300
C          0.10200       19.38700        1.51200
H         -0.60500       19.50600        0.70400
C          0.63200       20.51900        2.15600
H          0.33200       21.50900        1.84200
C          1.55700       20.36400        3.20300
H          1.96900       21.23500        3.69200
C          1.95300       19.07600        3.60700
H          2.67000       18.96100        4.40700
C          4.18900       16.89300        2.34900
O          4.30900       17.56800        1.32900
N          5.08300       16.94800        3.33800
H          4.92400       16.32500        4.12100
C          6.14400       17.94700        3.48700
H          5.70600       18.92400        3.27400
C          6.56600       17.94500        4.96400
H          7.30600       18.72800        5.13500
H          5.70000       18.13300        5.59900
H          7.00100       16.97900        5.22500
C          7.34100       17.79300        2.51500
O          8.47200       17.52700        2.93100
N          7.11300       17.99300        1.21600
H          6.15100       18.18100        0.94400
C          8.16500       18.26900        0.22500
H          9.11200       17.94600        0.64800
C          7.90800       17.45400       -1.05800
H          7.67900       16.43100       -0.76700
H          7.03500       17.85900       -1.56900
C          9.08000       17.39200       -2.05200
H          8.84500       16.65700       -2.82600
H          9.19100       18.36200       -2.53900
C         10.39100       17.00900       -1.35800
O         10.63000       15.80200       -1.11500
O         11.12300       17.91200       -0.89300
C          8.30800       19.77900       -0.05600
O          7.36900       20.55100        0.09700
N          9.48100       20.23400       -0.47300
H         10.24700       19.58800       -0.63600
H          9.57100       21.21700       -0.66500
