131
0 1
H         11.47600        7.46700        2.74400
C         10.89400        7.61600        1.83700
H          9.90200        7.18400        1.96400
H         11.39300        7.14300        0.99300
C         10.75400        9.09700        1.56900
O          9.64000        9.61200        1.53200
N         11.88500        9.78200        1.38500
H         12.76200        9.27900        1.39900
C         11.94700       11.21400        1.05400
H         11.11800       11.43300        0.37900
C         11.72700       12.05100        2.32400
H         11.31300       12.98800        1.99400
H         10.96300       11.57500        2.94100
C         12.96200       12.33600        3.19300
H         13.35400       11.38200        3.55000
H         13.73700       12.83200        2.60900
C         12.62000       13.21400        4.41200
H         11.67500       12.88600        4.84900
H         13.39600       13.04700        5.16000
C         12.56900       14.73100        4.15100
H         12.44000       15.23200        5.11300
H         13.52100       15.06300        3.72800
N         11.46700       15.15000        3.25700
H         10.60100       14.64500        3.42400
H         11.26100       16.14200        3.34800
H         11.69500       15.03900        2.26800
C         13.23200       11.57800        0.30100
O         14.16600       10.78000        0.28500
N         13.27100       12.76000       -0.32200
H         12.48100       13.38700       -0.18900
C         14.35900       13.19300       -1.21800
H         15.24700       12.59200       -1.01600
C         13.95200       12.95900       -2.69100
H         13.07600       13.56400       -2.92800
H         14.77100       13.33700       -3.30500
C         13.69200       11.49100       -3.09400
H         14.24200       10.82200       -2.43200
C         12.20100       11.13600       -3.05900
H         12.07000       10.08500       -3.31600
H         11.79200       11.30000       -2.06600
H         11.65300       11.75000       -3.77300
C         14.17400       11.23600       -4.52400
H         13.65700       11.89700       -5.21900
H         15.24700       11.41600       -4.58600
H         13.98200       10.19900       -4.79900
C         14.79700       14.66100       -1.03600
O         15.84500       15.04500       -1.54900
N         14.01400       15.49200       -0.34100
H         13.15500       15.12400        0.06000
C         14.17500       16.95600       -0.28400
H         15.18000       17.20700       -0.62500
C         13.16700       17.66000       -1.23200
H         12.16900       17.60300       -0.79600
C         13.50800       19.14300       -1.45600
H         12.88900       19.55300       -2.25400
H         13.29700       19.73000       -0.56400
H         14.55500       19.25500       -1.73900
C         13.10500       17.01100       -2.62500
H         14.10300       16.97200       -3.06400
H         12.70100       16.00300       -2.55000
H         12.44400       17.58000       -3.27900
C         14.04400       17.46100        1.15900
O         13.50000       16.79000        2.03400
N         14.52200       18.67500        1.42600
H         14.94500       19.18400        0.66400
C         14.35100       19.41600        2.68500
H         14.53700       18.72700        3.50900
C         15.43800       20.50800        2.74400
H         15.24900       21.18100        3.58000
H         16.39000       20.01900        2.95200
C         15.59200       21.31900        1.46700
C         16.60000       20.98500        0.54000
H         17.28500       20.17600        0.75000
C         16.72000       21.70000       -0.66500
H         17.49400       21.44200       -1.37400
C         15.83600       22.75600       -0.94500
H         15.92900       23.30900       -1.86900
C         14.83500       23.09700       -0.01900
H         14.15800       23.91100       -0.23300
C         14.71000       22.37800        1.18300
H         13.93100       22.63800        1.88700
C         12.91200       19.95100        2.91400
O         12.72500       20.98400        3.55400
N         11.88700       19.25900        2.40200
H         12.09200       18.37600        1.95300
C         10.46800       19.57000        2.61200
H         10.38000       20.47400        3.21400
C          9.79800       19.84800        1.25000
H          9.79800       18.92600        0.67200
H          8.75700       20.12300        1.41800
C         10.41000       20.95000        0.39800
C         10.50900       20.77300       -0.99500
H         10.18400       19.84500       -1.44600
C         11.02600       21.79700       -1.80800
H         11.10300       21.65400       -2.87600
C         11.44000       23.01000       -1.23100
H         11.83600       23.79800       -1.85500
C         11.33600       23.19600        0.15800
H         11.65000       24.12900        0.60500
C         10.82200       22.17000        0.97100
H         10.74800       22.33000        2.03700
C          9.76300       18.45900        3.42100
O         10.40900       17.58800        4.00400
N          8.43000       18.51400        3.50800
H          7.95600       19.24500        3.00500
C          7.59800       17.59100        4.28800
H          8.15700       17.29800        5.17900
C          6.35800       18.36800        4.75300
H          6.65900       19.26500        5.29500
H          5.74800       18.64800        3.89300
H          5.76100       17.74200        5.41900
C          7.22300       16.27300        3.56300
O          6.35100       15.54600        4.03400
N          7.82100       15.96500        2.40900
H          8.59300       16.54100        2.07800
C          7.55300       14.73300        1.65300
H          6.49100       14.51000        1.76100
C          7.79900       14.98200        0.14700
H          7.14400       14.30800       -0.40700
H          7.47200       15.99500       -0.09400
C          9.22000       14.78400       -0.41900
H          9.39900       13.70900       -0.50100
H          9.24700       15.19000       -1.43200
C         10.35900       15.40600        0.39700
O         10.18200       16.46700        1.03200
O         11.44200       14.78000        0.45700
C          8.31000       13.51000        2.21600
O          9.15500       13.63000        3.10100
N          8.03900       12.31400        1.70300
H          7.35100       12.21300        0.97700
H          8.55700       11.50900        2.03100
