90
3 1
H          4.35700       15.58800        8.00600
C          5.04900       15.85400        8.80300
H          4.48600       16.08600        9.70700
H          5.62400       16.72800        8.50200
C          5.98100       14.69600        9.07400
O          7.19900       14.84900        8.97200
N          5.41300       13.53400        9.40900
H          4.40300       13.51500        9.45800
C          6.14100       12.29200        9.72100
H          6.81500       12.48500       10.55800
C          5.12600       11.21900       10.16400
H          4.53100       11.60900       10.99200
H          4.43800       11.02800        9.34000
C          5.79300        9.90500       10.62900
H          6.83200        9.86100       10.30400
H          5.80000        9.89300       11.72000
C          5.06300        8.64600       10.12800
H          5.48900        7.76800       10.61800
H          4.01300        8.71100       10.42000
C          5.14700        8.46600        8.60300
H          4.47000        7.66100        8.30400
H          4.80600        9.38600        8.11800
N          6.52300        8.15300        8.14900
H          6.61400        8.20200        7.13800
H          7.20900        8.81600        8.49900
H          6.81700        7.21500        8.40800
C          6.98200       11.81900        8.52400
O          6.48100       11.13700        7.63300
N          8.27800       12.14400        8.53100
H          8.58900       12.73000        9.29100
C          9.26000       11.73400        7.50600
H          8.88100       12.04200        6.53000
C         10.60900       12.43900        7.77100
H         11.05800       12.00100        8.66500
H         11.28000       12.22600        6.93700
C         10.57400       13.97000        7.97000
H         10.07200       14.20700        8.90900
H         11.60700       14.30900        8.05700
C          9.89600       14.74900        6.82900
H         10.19700       14.30400        5.87800
H          8.81100       14.65600        6.91200
N         10.29700       16.17300        6.81600
H         11.00900       16.42500        6.15000
C          9.84400       17.16300        7.57200
N          8.90500       17.01000        8.46100
H          8.44400       16.11100        8.56700
H          8.60200       17.78100        9.02500
N         10.34500       18.35900        7.44500
H         10.00300       19.11300        8.01400
H         11.07100       18.54500        6.77500
C          9.43200       10.20000        7.44700
O          8.96900        9.48500        8.33600
N         10.13200        9.70300        6.42100
H         10.46200       10.35800        5.73100
C         10.41900        8.27100        6.17900
H         10.99100        8.21900        5.25200
C         11.35500        7.73700        7.28100
H         12.16100        8.45400        7.44300
H         10.80000        7.61600        8.21300
O         11.92300        6.49600        6.90500
H         12.62400        6.28000        7.53500
C          9.17000        7.38700        5.94400
O          8.04800        7.88900        5.84000
N          9.36500        6.06600        5.81600
H         10.31500        5.75400        5.99200
C          8.33800        5.04000        5.52900
H          7.86700        5.28300        4.57500
C          9.00600        3.65100        5.41600
H          9.55900        3.44400        6.33500
H          8.22500        2.89400        5.32000
C          9.95300        3.50500        4.20900
H          9.40200        3.73300        3.29500
H         10.78400        4.20400        4.30700
C         10.50600        2.07100        4.12000
H         11.08400        1.86200        5.02400
H          9.66500        1.37500        4.07500
N         11.36300        1.87500        2.93100
H         11.51700        2.67500        2.34100
C         11.93900        0.74300        2.55200
N         12.65900        0.69800        1.46700
H         12.78600        1.51600        0.89700
H         13.09100       -0.16400        1.18300
N         11.81700       -0.36400        3.23100
H         11.27100       -0.37000        4.07300
H         12.26200       -1.20900        2.92000
C          7.20600        5.00900        6.57300
O          7.31600        5.55100        7.67000
N          6.08900        4.37900        6.24400
H          5.99600        3.94100        5.34300
H          5.35000        4.32100        6.92600
