90
3 1
H         13.99600       17.21500        3.13300
C         13.85000       16.96500        4.18300
H         13.05600       17.58300        4.59800
H         14.77700       17.15500        4.72400
C         13.48100       15.50600        4.30900
O         14.17400       14.75300        4.99100
N         12.37600       15.11000        3.67000
H         11.88600       15.81700        3.13400
C         11.86000       13.72900        3.54900
H         12.70500       13.04100        3.51600
C         10.94100       13.36900        4.74200
H         10.10400       14.07100        4.75000
H         10.52400       12.37400        4.58000
C         11.58600       13.39100        6.14400
H         12.01100       14.37600        6.33100
H         10.79500       13.24800        6.88200
C         12.64800       12.29800        6.37600
H         12.13400       11.34100        6.48600
H         13.32400       12.22300        5.52400
C         13.46000       12.57300        7.65400
H         12.79000       13.00700        8.40300
H         13.82900       11.62300        8.05300
N         14.60700       13.48100        7.39400
H         14.97600       13.87600        8.25000
H         15.35200       12.99400        6.91500
H         14.33200       14.23500        6.76500
C         11.09800       13.59000        2.21900
O         10.62600       14.58700        1.67900
N         10.96300       12.36700        1.68500
H         11.36300       11.60100        2.20400
C         10.41400       12.07000        0.33700
H         10.83900       12.80900       -0.34800
C         10.92000       10.69200       -0.14400
H         10.59800       10.56200       -1.17800
H         12.01200       10.69800       -0.15900
C         10.44700        9.49700        0.71500
H         11.24700        9.22300        1.40300
H          9.58000        9.77300        1.31700
C         10.07600        8.26900       -0.13000
H         10.93200        7.99400       -0.75100
H          9.85700        7.44100        0.54800
N          8.89800        8.52600       -0.98500
H          8.49900        9.45900       -0.94500
C          8.30300        7.66300       -1.79000
N          7.32200        8.04100       -2.55400
H          7.06600        9.02500       -2.60200
H          6.86500        7.38500       -3.15800
N          8.66900        6.41200       -1.86000
H          9.42200        6.08900       -1.28100
H          8.20100        5.77500       -2.47900
C          8.88300       12.23700        0.17900
O          8.19700       11.30900       -0.24800
N          8.34300       13.40900        0.51200
H          8.98900       14.14300        0.79300
C          6.90900       13.77000        0.56200
H          6.38900       12.99100        1.12000
C          6.77700       15.07600        1.36100
H          5.72700       15.35700        1.45000
H          7.18600       14.92800        2.36200
O          7.50000       16.10300        0.70800
H          7.47000       16.90300        1.24500
C          6.19000       13.87800       -0.80600
O          5.27700       14.69200       -0.98600
N          6.57600       13.06400       -1.79600
H          7.25300       12.34600       -1.55700
C          6.02300       13.03100       -3.16400
H          4.99300       13.39000       -3.12900
C          6.86300       13.95300       -4.08100
H          7.40800       14.68900       -3.48400
H          7.61400       13.34700       -4.59100
C          6.03100       14.70600       -5.14100
H          6.64000       14.81200       -6.04000
H          5.15000       14.12300       -5.40900
C          5.59700       16.12000       -4.71200
H          6.48600       16.75100       -4.64000
H          4.95600       16.52900       -5.49500
N          4.89900       16.13300       -3.41200
H          5.26100       15.52000       -2.69000
C          3.90900       16.90900       -3.01300
N          3.35400       17.81000       -3.77600
H          3.70100       17.94400       -4.70800
H          2.60500       18.38200       -3.43200
N          3.46600       16.77000       -1.79900
H          3.91400       16.07800       -1.20600
H          2.71400       17.33600       -1.45100
C          5.96400       11.59000       -3.69600
O          6.61600       10.69300       -3.16300
N          5.19200       11.34600       -4.74200
H          4.66000       12.08500       -5.17000
H          5.14900       10.40700       -5.10300
