90
3 1
H         10.26000       16.95600        2.18300
C          9.71200       16.62800        1.30100
H         10.42000       16.42000        0.50000
H          9.02800       17.41500        0.98600
C          8.93400       15.37500        1.62600
O          8.95800       14.91600        2.76600
N          8.22600       14.83400        0.63000
H          8.28200       15.29700       -0.27000
C          7.46400       13.56800        0.66000
H          7.97500       12.86300        1.31400
C          6.01800       13.79900        1.16600
H          5.53200       14.50900        0.49400
H          5.46500       12.86000        1.09700
C          5.86700       14.33300        2.60500
H          6.41200       15.27000        2.70300
H          4.81400       14.56600        2.76900
C          6.30600       13.34100        3.70000
H          5.55000       12.55700        3.77300
H          7.25600       12.87200        3.44400
C          6.42900       14.04100        5.06400
H          5.63200       14.78700        5.14400
H          6.27500       13.30400        5.85800
N          7.75900       14.68300        5.23400
H          8.04800       15.14000        4.36900
H          7.75800       15.35700        5.98700
H          8.47200       13.99000        5.41700
C          7.43800       12.95500       -0.75100
O          7.60800       13.67100       -1.73700
N          7.21500       11.63900       -0.87000
H          7.04700       11.11000       -0.02900
C          7.14100       10.93600       -2.16800
H          8.01900       11.21100       -2.75600
C          7.18200        9.41200       -1.93400
H          8.11100        9.15800       -1.42200
H          6.34400        9.11600       -1.29900
C          7.11000        8.62900       -3.25500
H          6.14700        8.82100       -3.72700
H          7.90200        8.97200       -3.92200
C          7.25200        7.11500       -3.05600
H          8.25200        6.90200       -2.67300
H          6.51000        6.77900       -2.32800
N          7.03100        6.41600       -4.33500
H          6.52200        6.93700       -5.04200
C          7.38900        5.18800       -4.66300
N          7.13300        4.74100       -5.85900
H          6.68200        5.34300       -6.52600
H          7.40400        3.81100       -6.12400
N          7.99700        4.38700       -3.83300
H          8.19200        4.70400       -2.90100
H          8.25700        3.45800       -4.11100
C          5.89900       11.37900       -2.96000
O          4.79300       10.94000       -2.67500
N          6.09000       12.22200       -3.97400
H          7.02100       12.58400       -4.12000
C          5.00300       12.85900       -4.74000
H          4.25800       13.23300       -4.03800
C          5.58400       14.05900       -5.49700
H          4.78700       14.57600       -6.03400
H          6.03700       14.75100       -4.78500
O          6.56600       13.60900       -6.41300
H          7.01100       14.37800       -6.79200
C          4.27000       11.94200       -5.73500
O          3.15100       12.26800       -6.14300
N          4.86900       10.81600       -6.15700
H          5.79400       10.63600       -5.79500
C          4.31400        9.85000       -7.13200
H          3.26600       10.08300       -7.31800
C          5.08300        9.92200       -8.47200
H          6.12700        9.67200       -8.27200
H          4.69500        9.14800       -9.13700
C          5.07100       11.25700       -9.24600
H          5.41200       12.06700       -8.60000
H          5.79800       11.16500      -10.05500
C          3.72600       11.64000       -9.89000
H          3.91500       12.41900      -10.63100
H          3.30700       10.77000      -10.40100
N          2.77700       12.15400       -8.89100
H          3.08900       12.14600       -7.92900
C          1.58500       12.68400       -9.07000
N          1.03800       12.81700      -10.24600
H          1.54600       12.52100      -11.06000
H          0.13000       13.23500      -10.34600
N          0.92800       13.08900       -8.02300
H          1.36100       12.98600       -7.11300
H          0.01900       13.50700       -8.11000
C          4.34900        8.41400       -6.58900
O          5.37600        7.93700       -6.10700
N          3.24800        7.68900       -6.70400
H          2.41500        8.08500       -7.10700
H          3.25000        6.74400       -6.35500
