94
-1 1
H          2.09800       15.15200       -2.11100
C          2.63700       15.10600       -1.16700
H          1.94000       14.90500       -0.35500
H          3.15500       16.04600       -0.99000
C          3.65000       13.98700       -1.23600
O          3.75900       13.32900       -2.26300
N          4.38600       13.79400       -0.14200
H          4.18000       14.35400        0.67000
C          5.34200       12.70000        0.06900
H          5.20200       11.96200       -0.71700
C          6.80300       13.21300        0.02400
H          6.90700       14.03200        0.73600
H          7.43900       12.40800        0.39500
C          7.42200       13.64900       -1.32000
H          8.49400       13.74900       -1.14800
C          7.23700       12.61300       -2.42700
H          7.81100       12.90800       -3.30300
H          7.60700       11.65300       -2.07400
H          6.18600       12.52000       -2.68800
C          6.94000       15.01000       -1.82700
H          6.99400       15.74200       -1.02200
H          7.58300       15.33400       -2.64500
H          5.92100       14.94200       -2.19700
C          5.06200       12.02300        1.43200
O          4.59300       12.71100        2.34500
N          5.37900       10.72600        1.61300
C          5.25800       10.04100        2.89200
H          4.26100       10.17300        3.31400
H          6.01000       10.43100        3.57900
C          5.52700        8.56200        2.61300
H          4.59100        8.05700        2.37200
H          6.01900        8.07600        3.45600
C          6.42700        8.60000        1.37800
H          6.37000        7.67600        0.80000
H          7.45700        8.79400        1.68000
C          5.89400        9.80400        0.59900
H          6.72800       10.26300        0.07000
C          4.81500        9.39400       -0.41800
O          3.68900        9.06200       -0.04900
N          5.17600        9.43100       -1.70000
H          6.17700        9.55100       -1.85300
C          4.38500        8.95500       -2.84000
H          4.02700        7.94900       -2.61800
C          3.16500        9.86800       -3.07900
H          2.59200        9.96300       -2.15700
H          3.50300       10.86900       -3.34500
C          2.22400        9.35500       -4.15300
C          2.28900        9.86300       -5.46300
H          3.01000       10.62700       -5.70900
C          1.42100        9.37500       -6.45600
H          1.48100        9.76800       -7.46100
C          0.48400        8.37500       -6.14200
H         -0.17900        7.99600       -6.90500
C          0.41600        7.86400       -4.83300
H         -0.29900        7.09200       -4.58900
C          1.28500        8.35300       -3.84100
H          1.23800        7.95800       -2.83600
C          5.25500        8.87000       -4.10700
O          5.46400        7.78800       -4.64900
N          5.79100       10.00900       -4.56600
H          5.58100       10.85700       -4.06300
C          6.61300       10.11200       -5.78600
H          6.15200        9.50500       -6.56600
C          6.63400       11.57400       -6.25900
H          7.14200       12.18200       -5.51000
H          7.22300       11.63500       -7.17500
C          5.26500       12.17000       -6.53500
C          4.61600       11.90400       -7.75600
H          5.09900       11.28400       -8.49800
C          3.33900       12.43600       -8.01000
H          2.84300       12.22700       -8.94700
C          2.70200       13.23100       -7.03900
H          1.71600       13.63000       -7.22600
C          3.34800       13.49800       -5.81900
H          2.85900       14.09600       -5.06200
C          4.62800       12.97500       -5.57000
H          5.11200       13.18600       -4.62800
C          8.05400        9.59000       -5.61700
O          8.74700        9.35200       -6.60300
N          8.49600        9.42300       -4.37400
H          7.84500        9.60000       -3.61700
C          9.73100        8.75800       -3.94300
H         10.52100        8.96700       -4.66600
C         10.15900        9.33800       -2.57300
H         10.97600        8.73800       -2.17000
H         10.55300       10.34000       -2.75100
C          9.05000        9.45800       -1.50900
O          9.32600       10.04300       -0.44200
O          7.89000        9.06100       -1.77700
C          9.59200        7.22200       -3.86400
O         10.58600        6.50700       -3.77000
N          8.38500        6.67000       -3.92700
H          7.56600        7.25700       -3.99700
H          8.31000        5.67000       -3.87200
