94
-1 1
H         -3.87800        9.80500       -1.77000
C         -4.10500       10.86000       -1.90800
H         -4.81300       11.19600       -1.15300
H         -4.51900       11.00800       -2.90500
C         -2.82700       11.65500       -1.78500
O         -2.67600       12.44200       -0.85600
N         -1.92000       11.45100       -2.73400
H         -2.18400       10.83300       -3.50300
C         -0.63600       12.14400       -2.85400
H         -0.75700       13.15500       -2.47100
C          0.41500       11.42200       -1.98400
H          0.02800       11.32000       -0.96900
H          0.56400       10.41800       -2.38500
C          1.77600       12.14400       -1.92000
H          2.13600       12.35000       -2.92500
C          1.69500       13.47100       -1.16100
H          1.29300       13.30500       -0.16200
H          2.68900       13.91000       -1.08500
H          1.05300       14.16900       -1.69600
C          2.80000       11.25600       -1.21200
H          2.48300       11.06200       -0.18800
H          2.89100       10.31000       -1.74500
H          3.77300       11.74800       -1.20900
C         -0.27000       12.21200       -4.35200
O          0.53400       11.40600       -4.82700
N         -0.91400       13.11200       -5.12000
C         -1.64000       14.28100       -4.66000
H         -1.09300       14.81400       -3.88200
H         -2.62500       13.98100       -4.29900
C         -1.77900       15.16300       -5.89700
H         -0.85700       15.72800       -6.04800
H         -2.63600       15.83200       -5.82400
C         -1.94400       14.14400       -7.02400
H         -1.58200       14.53700       -7.97400
H         -2.99600       13.86500       -7.10900
C         -1.13800       12.92700       -6.55200
H         -1.77100       12.04800       -6.68000
C          0.14300       12.71200       -7.36100
O          1.08700       13.49800       -7.28100
N          0.12900       11.64800       -8.16700
H         -0.64400       11.00400       -8.00200
C          1.21600       11.13700       -9.01600
H          0.77100       10.32600       -9.59100
C          1.67500       12.18100      -10.05100
H          2.28100       12.93500       -9.54800
H          2.32400       11.68700      -10.77600
C          0.55000       12.86700      -10.80800
C          0.17700       14.18500      -10.48200
H          0.69600       14.71000       -9.69200
C         -0.87700       14.81300      -11.17000
H         -1.16300       15.82200      -10.91100
C         -1.56000       14.12500      -12.18900
H         -2.37200       14.60500      -12.71500
C         -1.18800       12.80900      -12.51800
H         -1.71600       12.27600      -13.29700
C         -0.13500       12.18100      -11.82900
H          0.14500       11.16700      -12.07700
C          2.38900       10.46900       -8.27400
O          3.20300        9.81300       -8.92100
N          2.44100       10.54400       -6.94100
H          1.76100       11.13000       -6.47100
C          3.23800        9.63600       -6.10100
H          4.07900        9.25000       -6.67800
C          3.79800       10.40200       -4.89500
H          2.97200       10.67700       -4.24400
H          4.43900        9.72800       -4.32600
C          4.58800       11.65400       -5.23600
C          3.92900       12.89000       -5.38200
H          2.85600       12.94800       -5.26500
C          4.65800       14.04600       -5.70900
H          4.13900       14.98600       -5.83900
C          6.05100       13.97400       -5.88500
H          6.60900       14.86200       -6.14300
C          6.71300       12.74200       -5.73900
H          7.78200       12.68200       -5.88200
C          5.98200       11.58300       -5.41700
H          6.49000       10.63500       -5.31600
C          2.41200        8.42500       -5.62800
O          2.97100        7.37700       -5.31700
N          1.08500        8.57100       -5.58300
H          0.70800        9.48300       -5.81800
C          0.09500        7.52300       -5.31000
H          0.46800        6.88200       -4.51100
C         -1.20900        8.19100       -4.82300
H         -1.98900        7.43200       -4.75300
H         -1.02900        8.56100       -3.81200
C         -1.73700        9.37000       -5.66500
O         -1.26700        9.59600       -6.80800
O         -2.60200       10.09400       -5.12300
C         -0.18300        6.61000       -6.52100
O         -0.48500        5.43000       -6.36700
N         -0.07000        7.11700       -7.74100
H          0.04900        8.11600       -7.82700
H         -0.24900        6.52500       -8.53100
