98
0 1
H         -3.21000        8.09900       -5.33400
C         -2.16300        8.33700       -5.15300
H         -1.74000        8.81400       -6.03500
H         -1.61600        7.42500       -4.92100
C         -2.07400        9.28800       -3.98200
O         -3.09000        9.66300       -3.41100
N         -0.85500        9.67900       -3.61700
H         -0.06500        9.35700       -4.15000
C         -0.63000       10.66400       -2.55900
H         -1.23600       10.39000       -1.69300
C          0.85300       10.63000       -2.14500
H          1.11500        9.63700       -1.78400
H          1.47400       10.86200       -3.01000
C          1.16300       11.62900       -1.04300
O          0.29800       12.05600       -0.29700
N          2.38800       12.07500       -0.94000
H          2.59300       12.69900       -0.16500
H          3.09000       11.81900       -1.62600
C         -1.05100       12.07600       -3.00900
O         -0.52100       12.59300       -3.99200
N         -1.92000       12.73900       -2.24100
H         -2.27800       12.27900       -1.41800
C         -2.30300       14.13900       -2.46600
H         -2.64200       14.24400       -3.49800
C         -3.47700       14.49700       -1.54100
H         -3.78500       15.52200       -1.75200
H         -4.32300       13.85300       -1.78700
C         -3.17900       14.37200       -0.05700
C         -2.59200       15.44700        0.64000
H         -2.36800       16.37000        0.12300
C         -2.28200       15.31900        2.00500
H         -1.82300       16.14200        2.53500
C         -2.56400       14.11900        2.68100
H         -2.32100       14.01900        3.73000
C         -3.16100       13.04800        1.99200
H         -3.37800       12.12700        2.51300
C         -3.47000       13.17500        0.62600
H         -3.93100       12.34900        0.10400
C         -1.12800       15.12000       -2.28500
O         -1.11300       16.17500       -2.91100
N         -0.11500       14.76400       -1.48400
H         -0.20300       13.90300       -0.95200
C          1.15600       15.49400       -1.39100
H          0.96000       16.56700       -1.40800
H          1.62700       15.24700       -0.44000
C          2.15700       15.17400       -2.51200
O          3.26600       15.70700       -2.50700
N          1.80600       14.28400       -3.44900
H          0.85900       13.92600       -3.42700
C          2.68600       13.71700       -4.47200
H          2.16600       12.85100       -4.88600
C          2.85300       14.71300       -5.63300
H          3.46800       14.27000       -6.41700
H          1.87300       14.95200       -6.04900
H          3.31700       15.63600       -5.28200
C          3.99800       13.15900       -3.87800
O          3.99800       12.07300       -3.29700
N          5.10300       13.90300       -3.99300
H          4.99900       14.80600       -4.42900
C          6.42200       13.55100       -3.43600
H          6.63000       12.50600       -3.66400
C          7.51000       14.43000       -4.10700
H          7.30100       15.46900       -3.84700
C          8.92300       14.11300       -3.58600
H          9.12900       13.04500       -3.66900
H          9.66900       14.67000       -4.15400
H          9.01400       14.40500       -2.53900
C          7.49500       14.34400       -5.65400
H          6.54900       14.73700       -6.02900
H          8.27800       14.99400       -6.04600
C          7.70000       12.94000       -6.24300
H          7.69100       13.00500       -7.33200
H          8.65800       12.53000       -5.92700
H          6.89500       12.27500       -5.93000
C          6.46000       13.67800       -1.90000
O          7.22800       12.98100       -1.23900
N          5.62400       14.54200       -1.31500
H          4.96300       15.04100       -1.90200
C          5.52400       14.75800        0.13200
H          6.52800       14.74500        0.55800
C          4.90200       16.14400        0.41300
H          3.87000       16.13900        0.06400
H          4.88100       16.29600        1.49300
C          5.62300       17.33800       -0.24200
H          5.62300       17.22000       -1.32600
C          4.87900       18.63100        0.09300
H          3.85300       18.56500       -0.27000
H          4.87100       18.79300        1.17100
H          5.36700       19.47500       -0.39500
C          7.07000       17.48000        0.23600
H          7.51600       18.37200       -0.20400
H          7.09900       17.56300        1.32200
H          7.65300       16.61600       -0.07900
C          4.74100       13.61400        0.79800
O          3.55200       13.72300        1.08200
N          5.37800       12.47200        1.00100
H          4.88000       11.70300        1.41700
H          6.32300       12.36900        0.65500
