98
0 1
H         12.49800       12.69500       -7.69800
C         12.20600       13.28400       -6.82900
H         11.15400       13.11400       -6.60700
H         12.37100       14.34000       -7.03600
C         13.04600       12.87200       -5.64600
O         13.89500       11.99500       -5.76500
N         12.78300       13.47000       -4.48600
H         12.00900       14.11900       -4.44400
C         13.52000       13.22000       -3.24000
H         14.56300       13.50300       -3.39200
C         12.93100       14.11100       -2.13000
H         13.55600       14.02500       -1.24200
H         12.94500       15.15500       -2.44300
C         11.50000       13.73200       -1.78300
O         10.61500       13.76500       -2.62100
N         11.24700       13.28400       -0.58000
H         10.31800       12.94100       -0.40100
H         12.00200       13.18900        0.09500
C         13.51400       11.73500       -2.82500
O         14.53400       11.22500       -2.37800
N         12.40200       11.02200       -3.03200
H         11.57500       11.51500       -3.33800
C         12.30500        9.57700       -2.78700
H         12.72800        9.36100       -1.80600
C         10.82700        9.16500       -2.76700
H         10.38200        9.37800       -3.74100
H         10.76800        8.08700       -2.61000
C         10.01600        9.85000       -1.68100
C         10.09900        9.39100       -0.35200
H         10.71700        8.53500       -0.11400
C          9.38200       10.04200        0.66800
H          9.44700        9.68300        1.68700
C          8.57000       11.14800        0.36200
H          8.01000       11.64000        1.14500
C          8.47400       11.60100       -0.96500
H          7.84500       12.44800       -1.20600
C          9.19700       10.95500       -1.98400
H          9.12300       11.31700       -2.99900
C         13.10700        8.73000       -3.79100
O         13.55000        7.64100       -3.44100
N         13.36100        9.23400       -5.00600
H         13.04000       10.16900       -5.21500
C         14.31600        8.62700       -5.94300
H         14.11200        7.55900       -6.04300
H         14.21000        9.10100       -6.91800
C         15.76400        8.80700       -5.47600
O         16.57000        7.89000       -5.58200
N         16.06400        9.94800       -4.85000
H         15.35600       10.67100       -4.82600
C         17.28000       10.17500       -4.06500
H         18.11000        9.69200       -4.58200
C         17.55800       11.68600       -4.04200
H         18.51600       11.87500       -3.55700
H         17.59900       12.07100       -5.06200
H         16.77400       12.20300       -3.49000
C         17.22600        9.54900       -2.64600
O         17.96300        9.97800       -1.75900
N         16.34900        8.55900       -2.41500
H         15.80000        8.25600       -3.20800
C         16.08300        7.83100       -1.15400
H         15.29700        7.11300       -1.38400
C         17.32300        6.99900       -0.72800
H         18.11100        7.69600       -0.43600
C         17.03200        6.12200        0.50400
H         17.88900        5.48400        0.72000
H         16.85100        6.74900        1.37700
H         16.15300        5.50100        0.33000
C         17.89900        6.12200       -1.86800
H         18.27600        6.76700       -2.66300
H         18.75800        5.57100       -1.48300
C         16.92100        5.11400       -2.49100
H         17.44100        4.54100       -3.25900
H         16.55000        4.42500       -1.73300
H         16.08400        5.63400       -2.95600
C         15.49600        8.68000       -0.00500
O         14.69300        8.17400        0.77800
N         15.82100        9.97200        0.08200
H         16.48200       10.30700       -0.60900
C         15.34800       10.94200        1.08200
H         15.38600       10.45800        2.05700
C         16.30900       12.15000        1.10200
H         16.26200       12.63800        0.12700
H         15.95600       12.86300        1.84800
C         17.78400       11.82100        1.41200
H         18.17400       11.12600        0.67100
C         18.61600       13.10200        1.34600
H         19.66400       12.86900        1.53200
H         18.53000       13.54100        0.35200
H         18.26700       13.81800        2.09000
C         17.96500       11.20800        2.80300
H         19.02600       11.06100        3.00300
H         17.54300       11.86600        3.56300
H         17.47500       10.23700        2.84700
C         13.87200       11.36600        0.88700
O         13.52000       12.54300        0.91000
N         12.96700       10.42300        0.67100
H         12.00400       10.68000        0.53000
H         13.26900        9.45700        0.67300
