77
0 1
H          4.17400       19.52100        5.23100
C          4.09700       18.68400        5.92300
H          3.53100       17.88200        5.44900
H          3.59600       19.01100        6.83100
C          5.48900       18.18000        6.25400
O          6.44900       18.69700        5.68800
N          5.63000       17.18200        7.14500
C          4.55400       16.57700        7.91900
H          3.76500       16.19400        7.27100
H          4.14700       17.31500        8.61200
C          5.19200       15.43200        8.70600
H          5.13400       14.51000        8.12700
H          4.72400       15.30300        9.68300
C          6.65100       15.87400        8.83000
H          7.31700       15.02900        9.00800
H          6.74300       16.60400        9.63600
C          6.91600       16.56000        7.48600
H          7.68500       17.32200        7.61300
C          7.41100       15.53900        6.44100
O          8.52700       15.03500        6.55100
N          6.58600       15.19700        5.45100
H          5.72200       15.71400        5.34500
C          6.82500       14.13400        4.47200
H          7.10800       13.22800        5.00800
C          5.50400       13.86500        3.73200
H          5.61300       12.98800        3.09200
H          4.71500       13.65600        4.45700
C          5.11700       15.07600        2.88700
O          4.61500       16.06500        3.46500
O          5.46900       15.09000        1.68600
C          7.94600       14.45800        3.46000
O          8.49400       15.56200        3.40800
N          8.27100       13.47300        2.61400
H          7.72700       12.62500        2.66000
C          9.16100       13.62000        1.44800
H          9.32100       12.62200        1.04200
C          8.46900       14.43300        0.34300
H          8.38600       15.47200        0.65600
H          9.07500       14.38900       -0.56400
O          7.18000       13.92200        0.05400
H          6.52200       14.32800        0.66700
C         10.56200       14.17400        1.76600
O         11.20100       14.78000        0.91100
N         11.03300       14.01200        3.01000
H         10.43600       13.55000        3.67800
C         12.30500       14.56900        3.49100
H         12.54600       14.11800        4.45300
H         13.09600       14.31300        2.78500
C         12.31700       16.09400        3.67400
O         13.37900       16.66000        3.91700
N         11.16200       16.76700        3.55600
H         10.32200       16.22100        3.38100
C         11.03400       18.23800        3.55000
H         11.87500       18.63900        4.11900
C         11.19500       18.76900        2.10600
H         11.16200       19.86000        2.11200
H         12.20300       18.49800        1.78600
C         10.22400       18.22800        1.03000
H         10.78900       18.14900        0.10000
H          9.88800       17.22400        1.28500
C          9.00900       19.12400        0.73500
H          9.34700       20.15600        0.62500
H          8.57300       18.81900       -0.21700
N          7.99200       19.05600        1.79700
H          8.17400       19.61800        2.62200
C          6.96400       18.23300        1.87900
N          6.62500       17.43200        0.91400
H          5.96000       16.68300        1.12900
H          7.15700       17.40000        0.07300
N          6.24700       18.18900        2.95500
H          5.52200       17.47100        3.03100
H          6.52200       18.67300        3.79900
C          9.80200       18.76300        4.29500
O          9.36300       19.88700        4.07400
N          9.19200       17.96500        5.15200
H          9.50900       17.01700        5.27800
H          8.34700       18.29900        5.59400
