89
1 1
H         16.23200        7.17900        6.20200
C         15.72400        6.87400        7.11600
H         15.43400        7.75600        7.68400
H         16.39500        6.25500        7.70900
C         14.48500        6.07500        6.75500
O         14.18800        5.95500        5.56600
N         13.74300        5.53700        7.74100
C         13.96000        5.72500        9.16800
H         14.11200        6.77700        9.41700
H         14.81900        5.13400        9.48700
C         12.69400        5.20600        9.84800
H         11.94200        5.99500        9.87800
H         12.89900        4.82900       10.85000
C         12.24100        4.09500        8.90200
H         11.17500        3.88600        9.00500
H         12.82100        3.19200        9.09900
C         12.60300        4.63800        7.51400
H         12.92200        3.80700        6.88500
C         11.39200        5.29900        6.83100
O         10.46700        4.60600        6.40800
N         11.38300        6.62600        6.67900
H         12.17100        7.15800        7.03100
C         10.42600        7.34800        5.83400
H          9.41300        7.02000        6.07300
C         10.53900        8.85100        6.13300
H          9.76500        9.37700        5.57200
H         10.35200        9.02000        7.19400
C         11.88300        9.44400        5.78200
N         13.10400        9.06400        6.34500
C         14.03500        9.82600        5.75000
H         15.09400        9.79100        5.97400
N         13.46700       10.64200        4.84600
H         13.95800       11.32700        4.28600
C         12.10900       10.41500        4.85100
H         11.36000       10.90800        4.24600
C         10.65700        7.07100        4.34000
O          9.69200        6.97800        3.58500
N         11.91400        6.89000        3.91400
H         12.66100        6.96300        4.59600
C         12.25900        6.56300        2.52100
H         11.75000        7.27200        1.86700
C         13.76700        6.71600        2.28800
H         13.96300        6.64800        1.21700
H         14.09500        7.69600        2.63700
O         14.50900        5.70600        2.94300
H         14.49200        5.85300        3.90900
C         11.77900        5.15800        2.13500
O         11.19300        4.97300        1.06100
N         11.92200        4.18200        3.04500
H         12.47100        4.39000        3.87100
C         11.26500        2.87300        2.97000
H         10.32500        3.05900        2.47800
C         12.10900        1.90100        2.11200
H         12.63000        2.44800        1.32400
H         12.87400        1.45000        2.74700
C         11.27600        0.78000        1.45700
H         11.93200       -0.07500        1.28500
H         10.50500        0.45100        2.15100
C         10.63700        1.14700        0.10000
H         11.42100        1.11600       -0.66000
H          9.89600        0.39000       -0.16300
N         10.03900        2.49600        0.08000
H         10.68800        3.27200        0.01100
C          8.79500        2.85200        0.33400
N          8.53100        4.11200        0.49900
H          7.64800        4.38400        0.90000
H          9.30500        4.76900        0.49800
N          7.82500        2.00600        0.53400
H          6.93400        2.35500        0.84300
H          8.02000        1.01500        0.60700
C         10.97400        2.31100        4.37300
O         11.88800        2.19200        5.17600
N          9.73800        1.92700        4.70900
H          9.64800        1.61400        5.66300
C          8.52200        1.99900        3.88200
H          8.81600        1.80200        2.85900
C          7.54400        0.87000        4.26900
H          7.62400        0.64600        5.33200
H          6.51900        1.18600        4.07300
C          7.77900       -0.38600        3.44000
O          7.99800       -0.32800        2.23800
N          7.75100       -1.55100        4.04000
H          7.55400       -1.62600        5.02200
H          7.89300       -2.36100        3.46200
C          7.84200        3.38500        3.80800
O          7.00000        3.59300        2.93800
N          8.22200        4.35600        4.62400
H          7.82400        5.27300        4.50000
H          8.95100        4.20500        5.31200
