89
1 1
H          6.42500        1.82200        4.82100
C          7.30600        2.38000        5.13300
H          7.04300        3.03600        5.96000
H          7.68000        2.98000        4.30600
C          8.38500        1.41400        5.58600
O          8.72100        1.41100        6.76900
N          8.95300        0.59400        4.68100
C          8.57500        0.47000        3.28000
H          9.09100        1.23300        2.69600
H          7.49600        0.55300        3.13800
C          9.04700       -0.91900        2.85600
H          9.26300       -0.96500        1.78800
H          8.29700       -1.66300        3.13200
C         10.30400       -1.11300        3.70100
H         11.14200       -0.60700        3.21800
H         10.53200       -2.17000        3.84700
C          9.95600       -0.42100        5.02500
H          9.49500       -1.14800        5.69500
C         11.21400        0.14400        5.70200
O         11.81000       -0.51200        6.55600
N         11.59600        1.37900        5.37900
H         11.04100        1.89100        4.70000
C         12.66900        2.12900        6.03700
H         13.55000        1.49400        6.14300
C         13.03100        3.32100        5.13300
H         13.88700        3.84000        5.56700
H         13.33300        2.94800        4.15300
C         11.90500        4.31400        4.94200
N         10.61100        3.99700        4.51500
C          9.93500        5.15700        4.50300
H          8.89600        5.26100        4.21900
N         10.73100        6.16800        4.89100
H         10.45400        7.13900        4.94500
C         11.97700        5.65600        5.17500
H         12.84900        6.20200        5.50900
C         12.27600        2.61900        7.44000
O         13.11200        2.61500        8.34200
N         11.01900        3.02800        7.63900
H         10.37400        2.98100        6.85700
C         10.57500        3.79900        8.80600
H         11.45300        4.24300        9.27400
C          9.69800        4.96800        8.34100
H          9.43100        5.59100        9.19600
H         10.26900        5.57800        7.63900
O          8.52200        4.51400        7.70200
H          7.84500        4.35300        8.36700
C          9.86700        3.00000        9.90500
O          9.71700        3.54200       10.99800
N          9.44800        1.73800        9.68900
H          9.50400        1.39800        8.73300
C          8.75900        0.89800       10.70800
H          8.04400        1.56200       11.19800
C          7.87900       -0.20300       10.06200
H          7.41900       -0.78500       10.86300
H          7.05700        0.31100        9.56100
C          8.45300       -1.19600        9.02800
H          7.63400       -1.86300        8.75800
H          8.71900       -0.66000        8.12100
C          9.63500       -2.08800        9.43900
H          9.59900       -2.30600       10.50500
H          9.52900       -3.04100        8.91800
N         10.92000       -1.50000        9.02200
H         11.03700       -1.31500        8.03300
C         11.95800       -1.15100        9.75000
N         12.95200       -0.54500        9.18200
H         13.64900       -0.10300        9.76800
H         12.91500       -0.38000        8.18500
N         12.03600       -1.34000       11.03000
H         12.82400       -0.92400       11.51000
H         11.22500       -1.67300       11.53200
C          9.62700        0.42200       11.89400
O          9.57500       -0.73600       12.30200
N         10.46700        1.29900       12.44100
H         10.40100        2.24900       12.09800
C         11.42400        1.04200       13.52700
H         11.79500        0.02200       13.42400
C         12.63200        1.98800       13.35800
H         12.31400        3.01400       13.54700
H         13.39700        1.73700       14.09300
C         13.25000        1.88600       11.97600
O         13.71000        0.83300       11.55700
N         13.19800        2.93900       11.19600
H         13.51500        2.83600       10.23600
H         12.84400        3.81100       11.54600
C         10.78000        1.10400       14.92900
O         11.28200        1.76400       15.82800
N          9.64300        0.45100       15.13200
H          9.24500       -0.11300       14.39600
H          9.22100        0.50500       16.04500
