76
-1 1
H          7.43400        2.30900       -1.55600
C          7.31800        3.36200       -1.80700
H          6.30100        3.54900       -2.14800
H          8.02400        3.63800       -2.58900
C          7.58600        4.20100       -0.57900
O          6.70900        4.93400       -0.14000
N          8.79800        4.07800       -0.03300
H          9.45700        3.46200       -0.48900
C          9.31000        4.81400        1.13400
H          8.90600        5.83000        1.13600
C          8.92100        4.09400        2.43900
H          9.05400        3.02000        2.30100
H          9.61700        4.39600        3.21700
C          7.50000        4.35600        2.96500
H          6.77600        3.95500        2.25800
H          7.37800        3.78900        3.88800
C          7.15300        5.83500        3.24100
H          6.98000        6.32500        2.28000
H          6.21900        5.88200        3.80300
N          8.19800        6.59900        3.95800
H          8.61300        7.37900        3.43900
C          8.80000        6.33000        5.10200
N          9.78500        7.05000        5.53100
H         10.34500        6.66700        6.28700
H         10.09500        7.87000        4.99900
N          8.49400        5.31300        5.84700
H          7.88500        4.62500        5.46900
H          9.26300        5.00800        6.45000
C         10.83200        4.94500        1.07500
O         11.50800        4.13500        0.44800
N         11.35100        5.95100        1.76700
H         10.68200        6.60800        2.15700
C         12.77800        6.29700        1.85300
H         13.20200        6.27500        0.84900
C         12.95800        7.72400        2.42500
H         12.91000        7.68000        3.51500
H         13.96300        8.05600        2.16200
C         11.96100        8.79400        1.93900
H         12.40500        9.77900        2.09900
H         11.78900        8.67700        0.86600
C         10.64100        8.71700        2.71900
O         10.61500        9.08400        3.91200
O          9.66900        8.12500        2.20100
C         13.60200        5.32300        2.71600
O         14.80800        5.20600        2.52000
N         12.96700        4.64700        3.68100
H         11.96900        4.77600        3.77300
C         13.61200        3.79200        4.69200
H         14.68200        4.00500        4.71100
C         13.04700        4.14200        6.08800
H         13.36400        3.38200        6.80300
H         13.49300        5.09000        6.39700
C         11.51800        4.29400        6.15900
O         11.01500        5.03700        7.03200
O         10.79700        3.73500        5.30300
C         13.48000        2.28800        4.38100
O         14.45000        1.54200        4.49700
N         12.29400        1.84500        3.95300
H         11.52200        2.50100        4.04700
C         11.98600        0.45600        3.55400
H         12.84000       -0.16600        3.82100
C         10.77600       -0.10400        4.33400
H         10.65700       -1.15400        4.06600
C         11.01100       -0.05200        5.85000
H         11.04900        0.98300        6.19300
H         10.20300       -0.56800        6.36600
H         11.95600       -0.54100        6.09000
C          9.45700        0.61300        4.01500
H          8.64300        0.13600        4.56000
H          9.51700        1.65900        4.31500
H          9.24600        0.54900        2.94800
C         11.82400        0.28200        2.03500
O         11.40600       -0.76900        1.56000
N         12.13000        1.29500        1.23700
H         12.02500        1.18300        0.24400
H         12.46200        2.16400        1.62700
