76
-1 1
H          8.02800       11.87300       11.64900
C          8.28400       12.66600       10.94900
H          9.20900       12.41900       10.43100
H          8.40200       13.60600       11.48600
C          7.17100       12.81500        9.93800
O          6.57600       13.88200        9.83800
N          6.90000       11.74000        9.19400
H          7.42400       10.89500        9.37700
C          5.83500       11.62600        8.18400
H          4.98500       12.24300        8.48100
C          6.34500       12.07800        6.80300
H          7.36100       11.70700        6.65800
H          5.72800       11.62200        6.03200
C          6.34100       13.59900        6.57600
H          7.00000       14.07200        7.30100
H          6.77400       13.79500        5.59700
C          4.95400       14.27100        6.65900
H          4.65100       14.30000        7.70800
H          5.04500       15.30400        6.32200
N          3.88200       13.60200        5.88800
H          3.08400       13.24600        6.42300
C          3.84200       13.29400        4.60300
N          2.79500       12.75400        4.07100
H          2.91300       12.33700        3.15500
H          1.99600       12.48900        4.65700
N          4.84100       13.46300        3.79100
H          4.80300       12.83600        2.98200
H          5.72900       13.68100        4.17900
C          5.31200       10.19200        8.10900
O          6.00900        9.24900        8.47200
N          4.07300       10.06000        7.65600
H          3.56600       10.91700        7.45500
C          3.28200        8.82800        7.65300
H          3.71300        8.14500        8.38600
C          1.85200        9.16100        8.13300
H          1.37300        8.21700        8.39300
H          1.91800        9.74000        9.05600
C          0.90500        9.89300        7.15600
H          0.77500        9.26600        6.27200
H         -0.07200        9.96600        7.63900
C          1.32300       11.30800        6.71100
O          0.84100       11.75700        5.65200
O          2.17000       11.96900        7.35600
C          3.29100        8.06600        6.31500
O          3.11300        6.85100        6.31600
N          3.54400        8.73600        5.18500
H          3.78400        9.71700        5.24600
C          3.66400        8.09900        3.85900
H          2.83900        7.39600        3.73700
C          3.55200        9.15400        2.73900
H          3.76400        8.67400        1.78200
H          2.51500        9.49300        2.70900
C          4.44500       10.39700        2.87800
O          5.29300       10.47100        3.79500
O          4.21100       11.36900        2.12100
C          4.95900        7.28300        3.71400
O          4.96300        6.21200        3.10900
N          6.04700        7.75100        4.32800
H          5.98500        8.70400        4.67400
C          7.30500        7.00600        4.52100
H          7.51100        6.46300        3.59900
C          8.48700        7.96800        4.76700
H          9.39700        7.37700        4.87400
C          8.70200        8.90700        3.57300
H          8.81800        8.32000        2.66200
H          7.85000        9.57800        3.45600
H          9.60200        9.50100        3.72900
C          8.31800        8.81300        6.03500
H          8.21700        8.16500        6.90600
H          9.19000        9.45000        6.17400
H          7.42800        9.43600        5.95200
C          7.22300        5.93800        5.62800
O          8.21800        5.29600        5.94900
N          6.06800        5.71800        6.24600
H          6.03000        5.01800        6.96400
H          5.23600        6.21900        5.96300
