76
-1 1
H         -1.03000        9.94800       14.45300
C         -1.33300       10.88100       13.98100
H         -0.61600       11.66700       14.21200
H         -2.31800       11.17800       14.33800
C         -1.38800       10.68800       12.48400
O         -1.11100        9.59600       11.99800
N         -1.75100       11.75000       11.76400
H         -1.95500       12.60300       12.27600
C         -1.88800       11.80300       10.29600
H         -1.22600       11.07100        9.83100
C         -3.34500       11.48600        9.90500
H         -4.01400       12.03100       10.56500
H         -3.52100       11.84800        8.89400
C         -3.69700        9.99100        9.92100
H         -3.03600        9.47000        9.22800
H         -3.52600        9.58600       10.91800
C         -5.16400        9.70500        9.53900
H         -5.28300        8.63800        9.34700
H         -5.78800        9.96200       10.39700
N         -5.65500       10.47900        8.38100
H         -6.20000       11.31600        8.60000
C         -5.21100       10.48100        7.14000
N         -5.67800       11.32300        6.27800
H         -5.11200       11.47500        5.44500
H         -6.35000       12.03000        6.58900
N         -4.25100        9.71400        6.72200
H         -3.71800        9.22400        7.40400
H         -3.74500       10.10100        5.91900
C         -1.48600       13.17400        9.73900
O         -1.19500       14.10300       10.48500
N         -1.51500       13.29800        8.41700
H         -1.69800       12.45900        7.86800
C         -1.42200       14.55400        7.67000
H         -0.55500       15.09900        8.04200
C         -1.16400       14.23800        6.17800
H         -0.89900       15.18200        5.70000
H         -0.28900       13.59200        6.09200
C         -2.32600       13.63000        5.35900
H         -3.24900       14.16600        5.58500
H         -2.10400       13.81100        4.30500
C         -2.56200       12.11600        5.52900
O         -3.40600       11.55800        4.79000
O         -1.99800       11.47700        6.44500
C         -2.62900       15.50000        7.86200
O         -2.50900       16.68300        7.55300
N         -3.76500       15.01900        8.39100
H         -3.82000       14.03100        8.59300
C         -4.91600       15.84500        8.79700
H         -4.77500       16.85500        8.41100
C         -6.22700       15.32100        8.16700
H         -7.06900       15.84400        8.62300
H         -6.21200       15.59100        7.10900
C         -6.47200       13.80800        8.26100
O         -5.89100       13.13100        9.13600
O         -7.22400       13.26300        7.42700
C         -4.99400       16.00300       10.33000
O         -4.85700       17.11100       10.84900
N         -5.13300       14.90400       11.08100
H         -5.29400       14.03100       10.58300
C         -4.96700       14.85900       12.54700
H         -5.28100       15.82500       12.94100
C         -5.88000       13.80700       13.21900
H         -5.65600       13.80200       14.28600
C         -7.35200       14.21800       13.07000
H         -7.64000       14.20600       12.01800
H         -7.98700       13.52600       13.62100
H         -7.49700       15.22200       13.46700
C         -5.74000       12.37000       12.70000
H         -4.71000       12.03300       12.79900
H         -6.37600       11.70700       13.28600
H         -6.04700       12.31700       11.65600
C         -3.48200       14.74000       12.92000
O         -3.03100       13.79700       13.56700
N         -2.68000       15.69100       12.46800
H         -1.68500       15.56700       12.54900
H         -3.07000       16.42100       11.88500
