52
0 1
H          1.97200        2.28900       -4.18400
C          2.99200        2.39300       -3.81600
H          3.65100        1.73800       -4.38300
H          3.02900        2.13100       -2.76100
C          3.44000        3.82500       -3.99400
O          2.67800        4.65100       -4.49700
N          4.67500        4.12300       -3.57900
H          5.24300        3.38200       -3.19100
C          5.31200        5.44200       -3.72000
H          4.98100        5.87500       -4.66500
C          4.90700        6.35500       -2.53800
H          3.92400        6.06800       -2.15900
H          5.61600        6.20200       -1.72200
C          4.87500        7.85600       -2.89300
H          5.11900        8.42800       -1.99700
H          5.63100        8.08100       -3.64500
C          3.49800        8.33100       -3.38800
H          2.79500        8.29000       -2.55400
H          3.57100        9.37100       -3.71100
N          2.97800        7.48900       -4.47700
H          2.58900        6.58800       -4.22500
C          3.15100        7.65100       -5.77300
N          3.72000        8.68900       -6.30100
H          3.93300        8.56800       -7.29000
H          4.37700        9.21900       -5.75400
N          2.79900        6.70700       -6.58500
H          3.25000        6.75200       -7.50200
H          2.55500        5.81000       -6.19500
C          6.83500        5.32400       -3.80900
O          7.42900        4.46500       -3.16500
N          7.44000        6.22400       -4.57400
H          6.84200        6.83200       -5.12200
C          8.88800        6.40000       -4.74700
H          9.32600        6.81300       -3.83800
H          9.35100        5.43800       -4.96800
C          9.16000        7.35600       -5.91100
O         10.02100        8.22700       -5.84300
N          8.29900        7.26900       -6.92200
H          7.61900        6.51500       -6.88000
C          7.89400        8.37200       -7.78300
H          8.77100        8.75400       -8.30600
C          6.88400        7.83600       -8.81700
H          6.57800        8.66100       -9.46300
H          7.38400        7.09600       -9.44300
C          5.63500        7.18300       -8.19400
O          4.51300        7.52200       -8.63300
O          5.74600        6.41400       -7.20900
C          7.25500        9.52100       -6.96800
O          6.51400        9.31900       -6.00300
N          7.49300       10.76200       -7.37300
H          8.09900       10.93000       -8.15900
H          7.08900       11.52100       -6.85100
