63
0 1
H          3.26000        8.86000       -3.78400
C          3.92400        9.63000       -4.17200
H          3.35000       10.50900       -4.46000
H          4.45800        9.24600       -5.04100
C          4.93000       10.01300       -3.11100
O          6.12600        9.85600       -3.31600
N          4.44000       10.49900       -1.96600
H          3.43600       10.56800       -1.89900
C          5.23100       10.98800       -0.81500
H          6.07500       11.56000       -1.21500
C          4.34900       11.96000        0.00000
H          3.68100       12.46900       -0.69800
H          3.71500       11.40400        0.69200
C          5.08900       13.08200        0.75200
H          5.78100       13.58800        0.07700
H          4.33500       13.81300        1.04500
C          5.81900       12.66000        2.03500
H          5.76200       13.49100        2.74000
H          5.30500       11.81400        2.49100
N          7.24700       12.37600        1.81000
H          7.71800       12.84200        1.03400
C          8.01400       11.53600        2.47300
N          9.29600       11.69200        2.45500
H          9.66400       12.38700        1.80100
H          9.89900       10.89600        2.61800
N          7.54200       10.51600        3.12500
H          8.18600        9.88600        3.56000
H          6.61200       10.21800        2.85900
C          5.86200        9.84200        0.00200
O          5.64200        9.71100        1.20600
N          6.61400        8.98100       -0.68200
H          6.70300        9.16600       -1.67600
C          7.43800        7.89500       -0.12900
H          7.20400        7.74600        0.92500
H          7.21600        6.97200       -0.66500
C          8.94400        8.16100       -0.24600
O          9.74400        7.24400       -0.10000
N          9.32500        9.39900       -0.56100
H          8.60800       10.10900       -0.66100
C         10.70200        9.86000       -0.73800
H         11.21600        9.17800       -1.41600
C         10.64100       11.25200       -1.39800
H         11.65100       11.64000       -1.53900
H         10.18100       11.15800       -2.38300
C          9.82000       12.22800       -0.55400
O         10.42500       12.90200        0.30700
O          8.57000       12.18600       -0.61800
C         11.50600        9.90200        0.58500
O         10.97600        9.71200        1.68300
N         12.80700       10.19500        0.48500
H         13.18300       10.36100       -0.43500
C         13.71600       10.31200        1.63800
H         13.47200        9.51000        2.33700
C         15.16100       10.09000        1.17400
H         15.21700        9.17300        0.58400
H         15.47800       10.93000        0.55300
O         16.02700        9.96900        2.28100
H         15.82300       10.69600        2.89300
C         13.59800       11.63600        2.42500
O         14.36600       11.86800        3.35400
N         12.69600       12.54700        2.08000
H         12.05400       12.39500        1.31100
H         12.66100       13.40500        2.60300
