63
0 1
H          2.81900       13.69900        7.00900
C          2.58000       14.54700        6.36900
H          3.49400       14.96000        5.94900
H          2.06900       15.31000        6.95600
C          1.67200       14.09000        5.25200
O          0.55400       14.58400        5.12700
N          2.15200       13.14500        4.44000
H          3.05500       12.75300        4.67000
C          1.41500       12.47900        3.34800
H          0.35200       12.67700        3.44900
C          1.89800       12.96800        1.96300
H          2.95900       12.72300        1.87500
H          1.37500       12.40300        1.18900
C          1.73800       14.47100        1.64200
H          2.16200       15.07100        2.44800
H          2.32300       14.67600        0.74500
C          0.29800       14.93200        1.36000
H          0.32300       15.95600        0.98500
H         -0.12600       14.29400        0.58200
N         -0.52500       14.89400        2.57900
H         -0.05800       15.10300        3.45300
C         -1.67900       14.27900        2.72600
N         -2.05400       13.91600        3.91200
H         -1.43600       14.08200        4.68900
H         -2.72800       13.14300        3.95700
N         -2.44000       13.96100        1.73100
H         -2.14900       14.12300        0.78000
H         -3.26600       13.39000        1.93000
C          1.54900       10.95900        3.47200
O          2.51000       10.47000        4.06000
N          0.58300       10.23600        2.91900
H         -0.14100       10.72600        2.40100
C          0.48900        8.77300        2.95200
H          1.35100        8.33300        2.45000
H          0.45800        8.43000        3.98600
C         -0.78600        8.32200        2.24200
O         -0.73900        7.50000        1.33300
N         -1.89800        8.99300        2.54400
H         -1.87700        9.64100        3.32500
C         -2.90100        9.30300        1.52800
H         -3.16200        8.39300        0.98600
C         -4.16200        9.86200        2.20800
H         -4.95600        9.93800        1.46200
H         -4.49500        9.17000        2.98300
C         -3.91000       11.24100        2.82600
O         -4.46700       12.22600        2.29700
O         -3.06700       11.36600        3.74200
C         -2.33700       10.34500        0.53600
O         -1.40700       11.09500        0.85700
N         -2.92100       10.43800       -0.66100
H         -3.62100        9.75900       -0.92400
C         -2.57500       11.48800       -1.63200
H         -1.49100       11.52000       -1.74400
C         -3.19500       11.18000       -2.99900
H         -4.27600       11.31900       -2.94700
H         -2.79000       11.86400       -3.74700
O         -2.93300        9.84300       -3.38100
H         -1.98700        9.73000       -3.51300
C         -3.03500       12.87500       -1.16300
O         -2.27700       13.84000       -1.20100
N         -4.25100       13.00000       -0.64700
H         -4.82100       12.18400       -0.49100
H         -4.53600       13.89300       -0.27700
