63
0 1
H          2.58400       11.58700       -6.11300
C          2.02900       12.12800       -5.34700
H          0.96900       11.89500       -5.43700
H          2.18300       13.19800       -5.47300
C          2.52100       11.70400       -3.98400
O          3.41800       10.86900       -3.88700
N          1.93300       12.28000       -2.93100
H          1.16700       12.91500       -3.11400
C          2.20400       11.97800       -1.51300
H          2.68400       11.00800       -1.44200
C          3.10200       13.06000       -0.86800
H          2.57200       14.01200       -0.93700
H          3.21400       12.83600        0.19400
C          4.51300       13.27200       -1.45900
H          4.45000       13.37900       -2.54300
H          4.89400       14.21300       -1.06300
C          5.54000       12.18400       -1.10600
H          6.52300       12.50800       -1.45200
H          5.58600       12.07700       -0.02200
N          5.21400       10.90600       -1.75600
H          4.95300       10.95000       -2.73400
C          4.90700        9.76600       -1.17200
N          4.31100        8.84500       -1.86100
H          3.81200        8.14000       -1.31000
H          4.02300        9.04500       -2.80400
N          5.07300        9.53400        0.09000
H          4.80800        8.61800        0.45700
H          5.39300       10.24000        0.73400
C          0.89700       11.84700       -0.72900
O         -0.07900       12.51700       -1.04800
N          0.90800       11.00400        0.30100
H          1.75600       10.48800        0.47700
C         -0.21300       10.81800        1.23200
H         -0.43600       11.76200        1.73000
H         -1.09400       10.50400        0.67200
C          0.07100        9.76100        2.30300
O         -0.31100        9.93300        3.45200
N          0.82200        8.71800        1.94500
H          1.07400        8.60800        0.96700
C          1.37000        7.70600        2.86000
H          0.56900        7.27900        3.46600
C          2.01200        6.59600        2.00500
H          2.49800        5.86800        2.65700
H          1.22900        6.08000        1.44800
C          3.03100        7.17200        1.01500
O          2.61300        7.76100       -0.00900
O          4.24100        7.21100        1.32400
C          2.43600        8.27700        3.81700
O          2.55600        7.83400        4.95700
N          3.23700        9.24000        3.34800
H          3.10700        9.53500        2.39400
C          4.38800        9.79000        4.06800
H          4.08900        9.98700        5.09800
C          5.53200        8.76400        4.08700
H          6.34900        9.15500        4.69500
H          5.18700        7.83200        4.53800
O          6.01700        8.50400        2.78600
H          5.38300        7.89700        2.33600
C          4.86700       11.10600        3.43800
O          4.65700       11.37900        2.25500
N          5.53400       11.95100        4.21400
H          5.70600       11.72300        5.17900
H          5.85700       12.81600        3.81400
