63
0 1
H          8.03200        5.27500        3.80300
C          8.20700        4.86200        4.79500
H          8.60100        3.85100        4.71500
H          7.26700        4.84100        5.34700
C          9.19300        5.73500        5.53600
O          8.85500        6.29000        6.58000
N         10.41600        5.84000        5.00200
H         10.60700        5.29600        4.17400
C         11.50200        6.66600        5.56900
H         11.03000        7.54200        6.00400
C         12.23300        5.87700        6.68600
H         11.54800        5.17300        7.16200
H         13.02900        5.28900        6.22600
C         12.84600        6.76900        7.78700
H         13.71400        6.25600        8.20100
H         13.19900        7.69600        7.34500
C         11.90100        7.10100        8.95700
H         11.75400        6.19500        9.54800
H         12.37700        7.84400        9.60100
N         10.58500        7.58600        8.51200
H          9.88800        6.88800        8.28900
C         10.26200        8.80200        8.11700
N          9.12100        8.98700        7.53800
H          8.62600        8.17400        7.20700
H          9.06200        9.85100        6.99300
N         11.04500        9.83400        8.18800
H         10.73000       10.65200        7.66300
H         12.01700        9.74700        8.45100
C         12.46800        7.27800        4.54000
O         13.57200        7.67800        4.89500
N         12.08200        7.35900        3.26300
H         11.12900        7.12400        3.04400
C         12.92200        7.98200        2.22200
H         13.89400        7.48800        2.19200
H         12.43800        7.86000        1.25300
C         13.15400        9.48400        2.44800
O         14.20400       10.01300        2.10700
N         12.19800       10.13400        3.10800
H         11.39500        9.59600        3.42100
C         12.21500       11.51500        3.59800
H         12.47100       12.18400        2.77500
C         10.79400       11.86100        4.09200
H         10.79500       12.86800        4.51100
H         10.12300       11.86700        3.23200
C         10.23400       10.87000        5.12600
O          9.83200       11.30600        6.22700
O         10.21500        9.64200        4.86500
C         13.23500       11.77300        4.72700
O         13.52900       12.92600        5.02900
N         13.80100       10.72900        5.34700
H         13.52400        9.79700        5.06600
C         14.88600       10.86200        6.33000
H         15.45700       11.75200        6.06100
C         14.33300       11.11100        7.74500
H         15.12300       11.55500        8.35300
H         13.50300       11.81800        7.69600
O         13.91000        9.91100        8.36800
H         14.71000        9.35700        8.38400
C         15.88400        9.69500        6.25600
O         16.31200        9.15100        7.27300
N         16.23200        9.25300        5.05400
H         16.84700        8.46000        4.99100
H         15.83200        9.67500        4.22800
