63
0 1
H         -2.61600       11.48600        2.74900
C         -2.30300       12.14900        1.94500
H         -2.07900       13.13600        2.34700
H         -3.10100       12.22900        1.20700
C         -1.06900       11.58500        1.28100
O         -1.09000       11.29600        0.08600
N          0.01000       11.42800        2.05400
H         -0.06300       11.68300        3.03100
C          1.29900       10.87300        1.61000
H          1.10700       10.11900        0.84500
C          2.18000       12.00400        1.02600
H          1.55300       12.82400        0.67100
H          2.80300       12.41000        1.82500
C          3.09200       11.55000       -0.13000
H          4.00900       12.14100       -0.09900
H          3.36500       10.50300        0.00200
C          2.45200       11.75800       -1.51700
H          2.28700       12.82600       -1.66900
H          3.14300       11.41900       -2.29000
N          1.16500       11.05700       -1.64000
H          0.35600       11.49400       -1.21300
C          0.97200        9.80100       -1.98800
N         -0.17800        9.25100       -1.75800
H         -0.85100        9.76200       -1.21000
H         -0.16900        8.22900       -1.75800
N          1.88800        9.03500       -2.49400
H          2.85300        9.33200       -2.48500
H          1.67200        8.04200       -2.44300
C          2.01400       10.17000        2.77000
O          1.99700       10.67200        3.89000
N          2.64400        9.03400        2.49100
H          2.51600        8.65900        1.55400
C          3.45200        8.25000        3.44200
H          4.36900        8.78900        3.67600
H          2.88500        8.10500        4.36300
C          3.82100        6.87100        2.88400
O          4.94700        6.41300        3.03600
N          2.90100        6.30800        2.10100
H          2.03000        6.81400        2.01700
C          3.12100        5.31400        1.04200
H          3.27600        4.33100        1.48800
C          1.85500        5.28000        0.15200
H          2.02000        4.57100       -0.66100
H          1.02500        4.90400        0.75300
C          1.43600        6.64300       -0.44300
O          1.75800        7.71200        0.13500
O          0.80400        6.67100       -1.52100
C          4.34000        5.62800        0.15000
O          5.11700        4.73600       -0.17300
N          4.52700        6.89900       -0.22400
H          3.78400        7.55200       -0.00200
C          5.70300        7.40000       -0.94900
H          6.33300        6.54800       -1.20600
C          5.28200        8.04800       -2.27600
H          6.16100        8.14500       -2.91500
H          4.55500        7.40900       -2.78100
O          4.72900        9.33500       -2.06300
H          5.46100        9.84800       -1.67900
C          6.57100        8.31600       -0.07000
O          7.01500        9.37700       -0.50600
N          6.75900        7.98200        1.20000
H          6.34400        7.13500        1.57100
H          7.31800        8.58200        1.78300
