96
1 1
H         10.21700       11.53100       -2.29600
C          9.26200       11.07600       -2.03500
H          9.38600       10.00200       -1.91500
H          8.54300       11.27300       -2.82900
C          8.75200       11.67800       -0.74700
O          7.69300       12.29200       -0.72800
N          9.51300       11.52400        0.33900
H         10.39100       11.03900        0.22300
C          9.18800       12.05300        1.68300
H          8.11200       11.97500        1.82500
C          9.87900       11.20600        2.77300
H         10.95900       11.29700        2.64100
H          9.63600       11.61700        3.75400
C          9.52300        9.70400        2.79300
H          9.66200        9.27000        1.80300
H         10.23500        9.21600        3.46100
C          8.11400        9.37000        3.31800
H          8.06400        8.30200        3.53900
H          7.95800        9.89900        4.26000
N          7.03300        9.73000        2.37900
H          6.55000       10.60000        2.58900
C          6.59800        9.03900        1.34000
N          7.10100        7.87800        1.02200
H          6.72200        7.35900        0.25300
H          7.80800        7.48500        1.61400
N          5.64300        9.49300        0.58800
H          5.22700       10.39800        0.80900
H          5.30000        8.98400       -0.20100
C          9.46500       13.56300        1.83100
O          9.95200       14.01900        2.86300
N          9.17400       14.34600        0.79100
H          8.69900       13.91400        0.00900
C          9.31600       15.80600        0.79300
H         10.33300       16.06300        1.09000
C          9.05400       16.36200       -0.62100
H          8.01500       16.15300       -0.88600
H          9.17500       17.44600       -0.59300
C          9.95800       15.79200       -1.73300
H          9.81600       14.71300       -1.80000
C          9.56900       16.40700       -3.07600
H          9.71700       17.48700       -3.05400
H         10.18200       15.98000       -3.87100
H          8.52200       16.19300       -3.29200
C         11.44000       16.07800       -1.48400
H         11.78000       15.56300       -0.58600
H         12.03000       15.71700       -2.32700
H         11.60200       17.15100       -1.37300
C          8.34900       16.41600        1.82000
O          7.14400       16.18900        1.73900
N          8.87200       17.12800        2.82300
H          9.86800       17.28600        2.84300
C          8.06700       17.56900        3.97200
H          8.70100       18.12400        4.66300
H          7.27000       18.22800        3.62400
C          7.42700       16.40200        4.74100
O          6.30100       16.52700        5.20800
N          8.10500       15.24700        4.80300
H          9.01100       15.23500        4.35100
C          7.60500       13.92600        5.24200
H          8.45600       13.24900        5.17700
C          7.16800       13.90700        6.72600
H          6.30000       14.55100        6.86200
C          6.77700       12.49400        7.18200
H          6.51500       12.50900        8.24000
H          5.90600       12.14400        6.62800
H          7.60700       11.80500        7.02800
C          8.29200       14.39700        7.65000
H          9.18400       13.78500        7.51800
H          8.53000       15.43800        7.43100
H          7.96700       14.34000        8.68900
C          6.54500       13.32400        4.30900
O          6.69200       12.17200        3.89600
N          5.51700       14.07800        3.91400
H          5.44700       15.01800        4.29300
C          4.42900       13.59000        3.05700
H          3.94600       12.75400        3.56500
C          3.38000       14.69500        2.87300
H          3.84800       15.56100        2.40300
H          2.60500       14.33300        2.19500
C          2.71500       15.12300        4.16800
C          1.71400       14.31500        4.74100
H          1.40300       13.40400        4.24900
C          1.11300       14.69100        5.95800
H          0.34500       14.08100        6.40800
C          1.51300       15.87800        6.60600
O          0.93300       16.23200        7.78200
H          1.25500       17.07400        8.10400
C          2.51300       16.69100        6.03000
H          2.82600       17.59900        6.52300
C          3.10900       16.31300        4.81100
H          3.87800       16.93800        4.37600
C          4.92400       13.06300        1.70000
O          4.60300       11.94200        1.31500
N          5.77600       13.79000        0.99300
H          6.14300       13.41100        0.13100
H          6.05800       14.70500        1.32400
