103
1 1
H         15.74600        8.35000      -11.06600
C         15.59300        8.13300      -10.01100
H         16.55400        8.03000       -9.51000
H         15.03200        7.20400       -9.90900
C         14.80800        9.25400       -9.37100
O         13.71700        9.03300       -8.85800
N         15.34600       10.47700       -9.41100
H         16.24200       10.57900       -9.86400
C         14.71000       11.67800       -8.83400
H         14.22600       11.36100       -7.90900
C         15.79200       12.72100       -8.45800
H         16.72500       12.18900       -8.26700
H         15.98400       13.39200       -9.29700
C         15.50800       13.54800       -7.18400
H         15.39200       12.86600       -6.34100
H         16.39800       14.14800       -6.98700
C         14.31100       14.51700       -7.21800
H         14.36400       15.17300       -6.34800
H         14.39000       15.14000       -8.11200
N         13.01200       13.82100       -7.22800
H         12.52100       13.79300       -8.11700
C         12.44400       13.13700       -6.25500
N         12.80500       13.22200       -5.00900
H         13.46300       13.92900       -4.74300
H         12.19300       12.80200       -4.31900
N         11.46900       12.33100       -6.52800
H         11.02600       12.38200       -7.44000
H         10.99000       11.85700       -5.77700
C         13.58100       12.21800       -9.73500
O         13.62700       13.35800      -10.18600
N         12.54900       11.40500       -9.97400
H         12.60500       10.47200       -9.58000
C         11.35200       11.76100      -10.75500
H         11.66400       12.01200      -11.77100
C         10.39200       10.55200      -10.81600
H         10.37900       10.04300       -9.85000
H          9.38400       10.92600      -10.99300
C         10.69000        9.53700      -11.93700
H         10.69700       10.06300      -12.89200
C         12.02200        8.80500      -11.77500
H         12.13300        8.06500      -12.56700
H         12.84900        9.50800      -11.85300
H         12.05500        8.29800      -10.81000
C          9.57700        8.48900      -11.97600
H          9.54600        7.93800      -11.03600
H          8.61500        8.97400      -12.14100
H          9.75600        7.79000      -12.79400
C         10.62800       13.00100      -10.19100
O         10.80800       13.36600       -9.02900
N          9.77900       13.63000      -11.00900
H          9.61100       13.22900      -11.92000
C          8.98200       14.81000      -10.64300
H          9.66500       15.59600      -10.31500
C          8.22700       15.31400      -11.89200
H          7.69400       16.22600      -11.62100
H          8.94300       15.57000      -12.67200
C          7.22500       14.32200      -12.47300
O          7.35100       13.11500      -12.34400
N          6.19100       14.79400      -13.12500
H          6.06300       15.78100      -13.25200
H          5.55200       14.11500      -13.50300
C          8.01500       14.55300       -9.46800
O          7.86300       15.41200       -8.60200
N          7.40000       13.36800       -9.40000
H          7.51700       12.73200      -10.17900
C          6.69400       12.89000       -8.20200
H          5.98600       13.66300       -7.90200
C          5.86500       11.62200       -8.50300
H          5.07200       11.91600       -9.19200
C          6.63700       10.47400       -9.17200
H          7.43900       10.11700       -8.52700
H          5.95700        9.64600       -9.37000
H          7.05300       10.80200      -10.12300
C          5.18800       11.09100       -7.23300
H          5.93200       10.69800       -6.53900
H          4.62000       11.88800       -6.75300
H          4.50000       10.28700       -7.49700
C          7.70800       12.72400       -7.06200
O          8.58700       11.86400       -7.11200
N          7.65300       13.61000       -6.06100
H          6.97100       14.35200       -6.12200
C          8.81500       13.81500       -5.19000
H          9.67100       13.89300       -5.85500
C          8.73900       15.16300       -4.46500
H          8.29700       15.90800       -5.13000
H          8.10400       15.07800       -3.58200
C         10.12600       15.63800       -4.07700
C         10.93400       16.26300       -5.04800
H         10.53400       16.46900       -6.03200
C         12.26500       16.60400       -4.74600
H         12.88900       17.08700       -5.48300
C         12.79100       16.32400       -3.46900
O         14.09400       16.59900       -3.20900
H         14.26000       16.71500       -2.27000
C         11.98000       15.70900       -2.49000
H         12.38300       15.48800       -1.51200
C         10.64800       15.36700       -2.79600
H         10.03400       14.87500       -2.05300
C          9.10100       12.65000       -4.22000
O         10.25900       12.33500       -3.94700
N          8.08100       11.95600       -3.73400
H          7.13900       12.19600       -3.99500
H          8.27300       11.17600       -3.12600
