103
1 1
H         20.50600       13.17600       -7.91600
C         21.08100       13.17200       -6.99200
H         21.62200       14.11100       -6.88600
H         21.79300       12.34600       -7.01200
C         20.15100       12.98900       -5.81600
O         20.27200       12.02300       -5.07000
N         19.20100       13.91200       -5.63600
H         19.15100       14.67400       -6.29500
C         18.20500       13.84000       -4.55300
H         18.73200       13.48400       -3.66800
C         17.65600       15.25200       -4.24100
H         18.49600       15.90700       -4.00100
H         17.17500       15.64800       -5.13800
C         16.64100       15.32700       -3.08000
H         16.33200       16.36600       -2.95600
H         15.74900       14.76000       -3.34500
C         17.17100       14.81400       -1.73100
H         17.68600       13.86600       -1.88300
H         17.87700       15.53900       -1.32200
N         16.06400       14.59400       -0.78300
H         15.15900       14.99600       -1.01300
C         16.04700       13.76300        0.24100
N         14.92900       13.46700        0.82400
H         14.05400       13.79500        0.43100
H         14.91900       12.73900        1.52800
N         17.11100       13.17000        0.69200
H         16.97800       12.49500        1.43800
H         18.01100       13.37600        0.30800
C         17.12100       12.79500       -4.85600
O         15.99700       13.13100       -5.22100
N         17.44200       11.51700       -4.64700
H         18.41900       11.30700       -4.47200
C         16.45900       10.43200       -4.54900
H         15.81000       10.45100       -5.42500
C         17.17300        9.06200       -4.47700
H         17.99600        9.12700       -3.76400
H         16.46600        8.33700       -4.07100
C         17.71000        8.46400       -5.79500
H         18.15000        7.49700       -5.55100
C         16.59500        8.21800       -6.81300
H         15.80000        7.62800       -6.35800
H         16.19000        9.16000       -7.18300
H         16.99700        7.66000       -7.65900
C         18.79800        9.30600       -6.46200
H         18.39200       10.24800       -6.82400
H         19.60000        9.50000       -5.75000
H         19.21500        8.75700       -7.30600
C         15.58200       10.68700       -3.31000
O         15.94400       10.33600       -2.18800
N         14.45800       11.38500       -3.49700
H         14.27700       11.70700       -4.43900
C         13.79600       12.11000       -2.40600
H         14.58200       12.66900       -1.90400
C         12.80600       13.13000       -3.00100
H         13.25300       13.62400       -3.86400
H         11.90400       12.61200       -3.32700
C         12.44600       14.21700       -1.99800
O         13.29200       14.72100       -1.27200
N         11.20000       14.61600       -1.92100
H         10.99000       15.32200       -1.23600
H         10.48700       14.20500       -2.49500
C         13.15400       11.23600       -1.30800
O         12.78200       11.76200       -0.26400
N         13.06800        9.91800       -1.50600
H         13.39800        9.55300       -2.38500
C         12.67800        8.94800       -0.46400
H         11.78900        9.32500        0.04400
C         12.31900        7.58100       -1.08300
H         12.03500        6.90500       -0.27600
C         11.11400        7.70300       -2.02500
H         11.35700        8.31600       -2.89200
H         10.81600        6.71100       -2.36600
H         10.27500        8.14900       -1.49000
C         13.48400        6.93900       -1.85200
H         14.33400        6.78400       -1.18700
H         13.17200        5.96400       -2.23000
H         13.78800        7.56000       -2.69300
C         13.74500        8.76100        0.62600
O         13.43600        8.24600        1.69500
N         14.99900        9.16300        0.38600
H         15.21800        9.57800       -0.51100
C         16.08100        9.02000        1.36300
H         16.04100        8.00900        1.77300
C         17.43200        9.17900        0.65200
H         17.47500        8.47800       -0.18300
H         17.50500       10.18500        0.23500
C         18.62600        8.92800        1.55400
C         19.12300        7.61900        1.70900
H         18.66400        6.79800        1.17400
C         20.22000        7.37200        2.55700
H         20.60100        6.36900        2.67200
C         20.82200        8.44100        3.25700
O         21.87900        8.21900        4.08000
H         22.14200        7.29800        4.09900
C         20.32100        9.75000        3.10500
H         20.79000       10.55600        3.65000
C         19.22600        9.99300        2.25500
H         18.84600       10.99800        2.15000
C         15.93000       10.01300        2.52900
O         15.95300       11.23100        2.33500
N         15.82000        9.52400        3.75600
H         15.72000       10.16300        4.52700
H         15.77300        8.52800        3.89800
