103
1 1
H          7.07100       18.16400        5.57500
C          6.36000       17.41300        5.23100
H          5.35300       17.82600        5.27200
H          6.41500       16.53200        5.86800
C          6.68000       17.03100        3.80600
O          5.85300       17.21600        2.91700
N          7.88200       16.49000        3.58000
H          8.48800       16.37100        4.37800
C          8.38400       16.05700        2.25900
H          8.05300       16.79100        1.52600
C          9.92500       16.07900        2.25700
H         10.27500       16.98700        2.75000
H         10.30000       15.21900        2.81500
C         10.48700       16.06600        0.82500
H         10.01700       15.26800        0.25600
H         10.25300       17.01200        0.33400
C         12.00500       15.85000        0.82000
H         12.49400       16.74000        1.22200
H         12.24000       14.99300        1.45500
N         12.48400       15.58400       -0.54600
H         11.84400       15.80800       -1.30600
C         13.65700       15.11800       -0.92500
N         13.83600       14.76100       -2.16100
H         13.00300       14.67100       -2.74200
H         14.70500       14.38700       -2.48200
N         14.65400       14.98200       -0.09600
H         15.53500       14.63300       -0.41900
H         14.53000       15.27900        0.85400
C          7.77400       14.71400        1.80800
O          8.48100       13.72000        1.63600
N          6.44900       14.68800        1.65500
H          5.95500       15.55000        1.84700
C          5.66600       13.52900        1.21100
H          5.72000       12.77000        1.99200
C          4.19700       13.97200        1.05300
H          3.84100       14.35700        2.01000
H          4.16700       14.79100        0.33300
C          3.22600       12.87800        0.56700
H          3.56800       12.48300       -0.38800
C          3.10200       11.73000        1.57100
H          2.76700       12.10700        2.53800
H          2.37700       11.00300        1.20200
H          4.05300       11.21700        1.68800
C          1.83700       13.48100        0.35900
H          1.45300       13.88000        1.29900
H          1.88900       14.28300       -0.37700
H          1.15500       12.71500       -0.00900
C          6.23500       12.92500       -0.08600
O          6.62200       13.65300       -0.99800
N          6.31300       11.59300       -0.15900
H          5.89700       11.04700        0.58100
C          6.84800       10.84400       -1.30800
H          7.03100        9.82600       -0.96100
C          5.77800       10.74900       -2.41700
H          5.56800       11.74800       -2.79800
H          6.16900       10.15000       -3.23900
C          4.47200       10.11400       -1.96300
O          4.32600        9.61900       -0.85800
N          3.46700       10.11300       -2.80500
H          3.56700       10.49800       -3.72500
H          2.62300        9.67000       -2.48700
C          8.22500       11.35300       -1.79900
O          8.53500       11.26800       -2.98300
N          9.02700       11.92700       -0.88800
H          8.65700       12.01500        0.04900
C         10.33500       12.56100       -1.13400
H         10.52000       13.16000       -0.24500
C         11.50800       11.55200       -1.17800
H         12.43300       12.12600       -1.25000
C         11.59200       10.75800        0.13300
H         11.63700       11.44100        0.98100
H         10.72300       10.10900        0.24000
H         12.49100       10.14100        0.13100
C         11.49000       10.56100       -2.34700
H         11.39300       11.09700       -3.29200
H         12.41800        9.99000       -2.36200
H         10.65500        9.86900       -2.24700
C         10.34500       13.59500       -2.27700
O         11.36300       13.75400       -2.95400
N          9.25400       14.35600       -2.46100
H          8.43400       14.16300       -1.89400
C          9.11500       15.34600       -3.54400
H          9.10700       14.78100       -4.47700
C          7.75600       16.07600       -3.45800
H          7.65800       16.71900       -4.33300
H          6.97500       15.31900       -3.54600
C          7.46600       16.93200       -2.22600
C          6.33600       16.64400       -1.43300
H          5.69200       15.81700       -1.69700
C          6.02500       17.43000       -0.30800
H          5.15900       17.20100        0.29400
C          6.83900       18.53100        0.02500
O          6.58900       19.24400        1.15100
H          6.04500       18.73600        1.76900
C          7.94600       18.85200       -0.78300
H          8.54900       19.71200       -0.53200
C          8.24900       18.06600       -1.91200
H          9.07800       18.35500       -2.53700
C         10.28800       16.34300       -3.65400
O         11.01000       16.61500       -2.69600
N         10.49400       16.92400       -4.82900
H         11.24900       17.58400       -4.91300
H          9.90300       16.70600       -5.61400
