149
3 1
H         -1.43600       17.01900       -4.96800
C         -2.04700       16.19700       -5.33700
H         -2.47800       16.45900       -6.30200
H         -2.85200       15.99800       -4.62900
C         -1.20000       14.95500       -5.48000
O         -1.45000       13.95400       -4.82200
N         -0.16400       15.01700       -6.32600
H         -0.03800       15.88100       -6.83400
C          0.69800       13.86300       -6.66800
H          0.04400       13.09600       -7.08500
C          1.70000       14.30700       -7.75500
H          1.13800       14.76400       -8.57200
H          2.34400       15.08000       -7.33400
C          2.61000       13.22200       -8.37000
H          3.24300       13.71600       -9.10800
H          3.27200       12.81300       -7.60600
C          1.87900       12.07200       -9.08800
H          1.06100       12.48300       -9.68400
H          2.59000       11.58900       -9.76200
N          1.36900       11.06400       -8.14000
H          1.58000       11.22600       -7.16000
C          0.68000        9.97300       -8.41100
N          0.37000        9.62600       -9.62900
H          0.67900       10.20000      -10.39300
H         -0.15200        8.78700       -9.81000
N          0.28500        9.20500       -7.43700
H         -0.23900        8.37000       -7.62600
H          0.50500        9.45800       -6.48800
C          1.38800       13.21300       -5.45300
O          1.72300       12.02900       -5.52300
N          1.55400       13.94800       -4.34700
H          1.19800       14.89300       -4.38200
C          1.95800       13.45200       -3.01900
H          1.61500       12.42000       -2.92200
C          3.49300       13.50100       -2.87800
H          3.95800       13.21900       -3.82500
H          3.78800       14.52900       -2.66100
C          4.02800       12.54600       -1.79000
H          3.27100       12.35800       -1.03000
H          4.26800       11.59000       -2.25800
C          5.28300       13.09100       -1.09500
H          5.73800       12.28400       -0.51600
H          5.99600       13.42000       -1.85400
N          4.94200       14.20000       -0.18200
H          3.98000       14.27900        0.12700
C          5.73700       15.14000        0.28700
N          7.00600       15.21600        0.00200
H          7.56100       15.95100        0.40000
H          7.42700       14.50500       -0.56600
N          5.22800       16.04200        1.06300
H          4.22300       16.01900        1.20700
H          5.73300       16.89100        1.26500
C          1.28100       14.29800       -1.93200
O          1.07900       15.49300       -2.12900
N          0.97600       13.69300       -0.78400
H          1.14700       12.70400       -0.70600
C          0.36900       14.36900        0.37000
H         -0.54900       14.85500        0.03400
C         -0.01800       13.31100        1.41500
H         -0.71500       12.60600        0.95700
H          0.87600       12.75100        1.69200
C         -0.63700       13.83100        2.67800
C         -1.96400       13.92400        2.92000
H         -2.74600       13.61700        2.23400
N         -2.17200       14.45900        4.17600
H         -3.09100       14.59900        4.57600
C         -0.98400       14.74100        4.81400
C         -0.67700       15.26900        6.07600
H         -1.46800       15.52600        6.76400
C          0.67100       15.42100        6.44400
H          0.92600       15.79100        7.42700
C          1.68900       15.06000        5.54200
H          2.72400       15.15700        5.83900
C          1.36700       14.52900        4.27700
H          2.15800       14.22500        3.60800
C          0.02200       14.35000        3.88000
C          1.26600       15.46200        0.98500
O          2.49700       15.34500        0.98900
N          0.62500       16.48300        1.56200
H         -0.38600       16.44800        1.57000
C          1.20800       17.56800        2.36000
H          2.14400       17.23300        2.80600
C          1.47900       18.79000        1.46800
H          0.54500       19.08800        0.98800
H          1.78700       19.62100        2.10400
C          2.52900       18.62700        0.41100
C          2.30000       18.28200       -0.87600
H          1.32200       18.07900       -1.30000
N          3.49400       18.23200       -1.56600
H          3.55000       18.04300       -2.55700
C          4.56400       18.52800       -0.75000
C          5.94900       18.58700       -0.96800
H          6.35300       18.41400       -1.95500
C          6.79800       18.91500        0.10300
H          7.86500       19.01000       -0.05800
C          6.25300       19.16800        1.37500
H          6.90900       19.45600        2.18900
C          4.86100       19.10900        1.58300
H          4.45600       19.34300        2.55700
C          3.97700       18.78700        0.52700
C          0.24200       17.95300        3.49600
O         -0.96700       17.75900        3.36800
N          0.75800       18.54200        4.58600
H          1.75600       18.67900        4.61200
C         -0.01400       18.95800        5.77800
H         -0.72000       18.15500        6.00100
C          0.95000       19.08600        6.98200
H          1.56700       18.18700        7.03000
H          1.62300       19.93100        6.82400
C          0.21600       19.22600        8.33200
H         -0.85800       19.12600        8.17000
H          0.51800       18.41000        8.99000
C          0.50800       20.56100        9.04600
H          1.48300       20.49400        9.53400
H          0.56500       21.37200        8.31800
N         -0.52900       20.88300       10.05000
H         -0.29800       20.71900       11.01600
C         -1.74400       21.34100        9.78800
N         -2.12300       21.63100        8.57800
H         -3.08800       21.77700        8.32900
H         -1.46200       21.55400        7.81100
N         -2.61600       21.50200       10.74200
H         -3.52100       21.87700       10.52100
H         -2.37700       21.30100       11.69600
C         -0.87200       20.21800        5.53500
O         -0.67200       21.24500        6.18100
N         -1.81000       20.14600        4.59400
H         -1.89700       19.26100        4.10700
C         -2.69000       21.24400        4.17000
H         -2.05800       22.07600        3.85400
C         -3.48300       20.76200        2.94300
H         -2.78200       20.38100        2.19900
H         -4.12300       19.93100        3.24300
C         -4.33100       21.83000        2.27900
C         -3.71400       22.85800        1.53900
H         -2.64100       22.87100        1.41400
C         -4.49300       23.87300        0.95700
H         -4.02100       24.66100        0.38500
C         -5.89000       23.86300        1.10900
H         -6.49000       24.64200        0.65800
C         -6.51000       22.83600        1.84300
H         -7.58600       22.82800        1.95500
C         -5.73200       21.82000        2.42700
H         -6.21700       21.03700        2.99200
C         -3.60900       21.78400        5.29300
O         -3.79100       21.16500        6.34000
N         -4.19300       22.96200        5.11300
H         -4.08900       23.45100        4.23700
H         -4.81300       23.31100        5.82500
