149
3 1
H         12.09800        5.33300       -4.88500
C         11.52700        5.87000       -4.12800
H         11.94500        5.65500       -3.14600
H         10.48700        5.55300       -4.16400
C         11.61100        7.35300       -4.39800
O         12.11200        7.76000       -5.44300
N         11.11100        8.17100       -3.46900
H         10.71200        7.74400       -2.63900
C         11.17500        9.64600       -3.48600
H         12.04500        9.95700       -4.06400
C          9.89200       10.23000       -4.12500
H          9.03600        9.90700       -3.53100
H          9.93100       11.31900       -4.06700
C          9.62600        9.84600       -5.59500
H          9.56300        8.76200       -5.68900
H          8.65500       10.25500       -5.87800
C         10.68100       10.39300       -6.57200
H         10.70600       11.48000       -6.48000
H         11.67000       10.02300       -6.30200
N         10.37400       10.04500       -7.97600
H          9.78000       10.68700       -8.47400
C         10.83700        9.01800       -8.67300
N         10.53100        8.89500       -9.93400
H         10.88800        8.11800      -10.46100
H          9.95400        9.57700      -10.39100
N         11.60100        8.09600       -8.16100
H         11.83000        8.12100       -7.16900
H         11.95000        7.33900       -8.71600
C         11.38200       10.17400       -2.05700
O         11.29500        9.41800       -1.09400
N         11.65900       11.47400       -1.89200
H         11.71000       12.05800       -2.71200
C         11.81800       12.10800       -0.56600
H         12.42400       11.43900        0.04800
C         12.57500       13.45100       -0.70900
H         13.18800       13.41500       -1.61200
H         11.86900       14.27000       -0.85400
C         13.53100       13.81000        0.44800
H         14.43000       13.20100        0.33900
H         13.83500       14.85000        0.32000
C         13.02700       13.62000        1.89100
H         12.94400       12.55000        2.09100
H         13.77200       14.01900        2.58200
N         11.71900       14.24500        2.15400
H         10.92500       13.61900        2.24600
C         11.41400       15.51200        2.34600
N         12.30000       16.46800        2.33900
H         13.26500       16.23500        2.19600
H         12.02200       17.41800        2.50000
N         10.17000       15.81500        2.56300
H          9.88100       16.75600        2.75200
H          9.50100       15.05400        2.56500
C         10.44500       12.24700        0.11900
O          9.77800       13.26800       -0.01700
N         10.01700       11.21600        0.84700
H         10.55800       10.36100        0.80200
C          8.68900       11.13400        1.47800
H          7.94400       11.21300        0.68600
C          8.52700        9.75300        2.13400
H          9.08400        9.75600        3.07300
H          7.47500        9.60100        2.38100
C          8.98700        8.57500        1.32500
C          9.88700        7.65300        1.73900
H         10.38500        7.65800        2.70200
N         10.05300        6.69000        0.76400
H         10.65800        5.88700        0.87400
C          9.26300        6.94000       -0.33500
C          9.07000        6.25700       -1.54600
H          9.59200        5.33000       -1.73500
C          8.15600        6.76900       -2.48100
H          7.96800        6.24000       -3.40600
C          7.45600        7.95500       -2.19600
H          6.73500        8.33300       -2.90900
C          7.65700        8.63200       -0.97700
H          7.09000        9.52500       -0.76500
C          8.56300        8.14100       -0.00900
C          8.38700       12.26000        2.49100
O          9.27600       13.01500        2.90000
N          7.12200       12.38400        2.90500
H          6.42800       11.72900        2.56800
C          6.66300       13.34300        3.91800
H          7.41800       13.40900        4.70200
C          6.49800       14.72800        3.27600
H          7.36100       14.93900        2.64400
H          5.61900       14.71700        2.62900
C          6.38000       15.85500        4.25300
C          5.29200       16.63800        4.42900
H          4.35700       16.53800        3.88600
N          5.55700       17.58500        5.39900
H          4.89300       18.29800        5.67400
C          6.83100       17.45200        5.90700
C          7.55100       18.15300        6.88500
H          7.10700       18.99600        7.39400
C          8.85700       17.74100        7.19700
H          9.42600       18.26700        7.95400
C          9.42100       16.63500        6.53600
H         10.42100       16.31300        6.79800
C          8.69100       15.94000        5.55200
H          9.13400       15.08200        5.06900
C          7.38100       16.34000        5.20300
C          5.35200       12.88200        4.57900
O          4.70500       11.95900        4.08500
N          4.95100       13.51500        5.69000
H          5.48400       14.31900        5.99000
C          3.66700       13.23900        6.35800
H          3.55600       12.15500        6.42500
C          3.66600       13.84200        7.77700
H          4.66900       13.78000        8.20500
H          3.40100       14.89900        7.70900
C          2.70200       13.10500        8.72700
H          1.86300       12.68200        8.17400
H          3.24200       12.27800        9.19100
C          2.14200       14.01600        9.82800
H          1.72100       13.38400       10.61400
H          2.95100       14.61300       10.25500
N          1.08000       14.88900        9.29500
H          0.85500       14.80200        8.30900
C          0.30700       15.73000        9.95400
N          0.44300       15.96400       11.23000
H          1.16400       15.48700       11.73900
H         -0.17100       16.60500       11.69900
N         -0.63400       16.34600        9.30500
H         -1.25500       16.98600        9.76300
H         -0.74900       16.12000        8.32200
C          2.49400       13.79300        5.53600
O          2.58500       14.89200        4.99500
N          1.36900       13.07800        5.51000
H          1.36700       12.16900        5.94000
C          0.12500       13.55100        4.88900
H          0.34600       13.82200        3.85600
C         -0.88900       12.39600        4.86600
H         -0.44500       11.54600        4.34600
H         -1.09500       12.08400        5.89100
C         -2.19800       12.73900        4.18000
C         -2.25200       12.82800        2.77600
H         -1.37400       12.61600        2.18200
C         -3.45300       13.18300        2.13700
H         -3.49800       13.24200        1.05800
C         -4.60300       13.44900        2.89900
H         -5.53000       13.71300        2.40700
C         -4.55400       13.35800        4.30100
H         -5.44500       13.55200        4.88300
C         -3.35300       13.00300        4.94200
H         -3.32700       12.93100        6.02000
C         -0.44900       14.80900        5.58000
O         -0.25100       15.03800        6.77700
N         -1.18500       15.63700        4.85000
H         -1.38700       15.41800        3.88700
H         -1.57600       16.45900        5.28000
