120
1 1
H         18.62400        5.96000        2.20000
C         19.22900        6.48200        2.93800
H         20.18400        5.97200        3.05600
H         18.70600        6.50600        3.89300
C         19.47900        7.89500        2.46800
O         20.61400        8.26000        2.18300
N         18.42000        8.70200        2.39900
H         17.53400        8.32800        2.70100
C         18.43000       10.06400        1.81900
H         18.77600        9.97600        0.78900
C         17.00700       10.65500        1.76800
H         17.06700       11.62200        1.27300
C         16.06600        9.78200        0.92900
H         16.49400        9.62200       -0.06100
H         15.89500        8.81900        1.40900
H         15.10700       10.28900        0.81200
C         16.38900       10.86500        3.15700
H         15.40400       11.32100        3.05200
H         16.28200        9.91300        3.67800
H         17.01000       11.53000        3.75600
C         19.39500       11.04900        2.50100
O         19.76900       12.05800        1.90100
N         19.88100       10.74000        3.70700
H         19.51900        9.90500        4.15900
C         20.99900       11.43000        4.36200
H         20.73700       12.48700        4.42800
C         21.16900       10.91100        5.80400
H         21.89400       11.56300        6.29300
H         20.22900       11.02600        6.34600
C         21.68000        9.46100        5.95900
H         22.46800        9.25500        5.23600
H         22.12300        9.37400        6.95100
C         20.60600        8.37700        5.85200
O         19.46300        8.60300        5.49100
N         20.93500        7.14200        6.15500
H         21.86400        6.91300        6.45700
H         20.20000        6.45800        6.10600
C         22.32300       11.36400        3.56900
O         23.26600       12.08900        3.89100
N         22.41000       10.55800        2.50200
H         21.66000        9.89300        2.32900
C         23.49400       10.64900        1.51500
H         24.42700       10.49900        2.05800
C         23.37400        9.52000        0.46200
H         23.30600        8.57200        1.00000
C         22.11700        9.64000       -0.42200
H         22.21200       10.47000       -1.12100
H         21.99100        8.72100       -0.99600
H         21.22500        9.78000        0.18600
C         24.59800        9.44100       -0.47800
H         24.42200        8.65300       -1.21100
H         24.71400       10.38100       -1.02000
C         25.91300        9.11700        0.24100
H         26.21200        9.94400        0.88400
H         25.79900        8.21000        0.83700
H         26.69700        8.95600       -0.50100
C         23.56200       12.05300        0.89100
O         24.64300       12.64200        0.84400
N         22.41600       12.65400        0.53900
H         21.55100       12.14700        0.68400
C         22.32600       14.04700        0.06400
H         23.30500       14.34000       -0.31800
C         21.34900       14.22200       -1.12100
H         21.22900       15.29000       -1.30100
C         21.95500       13.61200       -2.39000
H         22.92700       14.06300       -2.59300
H         22.07800       12.53600       -2.27700
H         21.30200       13.80700       -3.24200
C         19.95200       13.61700       -0.92300
H         19.44900       14.07900       -0.07600
H         19.34600       13.80600       -1.80900
H         20.01500       12.54000       -0.77000
C         22.04100       15.02300        1.20800
O         22.87800       15.88400        1.47900
N         20.94500       14.86200        1.95400
H         20.33000       14.08000        1.75700
C         20.56300       15.79600        3.02400
H         20.60300       16.80400        2.61000
C         19.11800       15.53500        3.46700
H         19.06400       14.54300        3.92000
H         18.84500       16.26100        4.23400
C         18.10300       15.63400        2.34200
C         17.40000       14.48800        1.92800
H         17.56800       13.54700        2.42700
C         16.47900       14.56700        0.86600
H         15.93400       13.69500        0.53900
C         16.25500       15.79800        0.21700
O         15.36700       15.86300       -0.80800
H         15.23000       16.76000       -1.11600
C         16.95200       16.95200        0.63700
H         16.77800       17.89700        0.14600
C         17.87300       16.86800        1.70000
H         18.40100       17.75500        2.02200
C         21.52900       15.76400        4.22100
O         22.19400       14.75800        4.46700
N         21.61800       16.87400        4.96400
H         20.99800       17.64300        4.74300
C         22.50400       17.07300        6.12700
H         22.72300       16.10700        6.58300
C         23.82500       17.75600        5.69800
H         23.58500       18.75000        5.31400
H         24.45700       17.89100        6.57700
C         24.64600       17.02500        4.61900
H         24.02300       16.88100        3.73800
H         25.47400       17.67000        4.32200
C         25.23300       15.68000        5.08500
H         26.05000       15.88000        5.78100
H         24.48200       15.09200        5.61200
C         25.77300       14.85300        3.90900
H         26.45900       15.46800        3.32000
H         26.33200       14.00300        4.31000
N         24.67300       14.35100        3.05500
H         24.01100       13.79100        3.59700
H         24.13700       15.10900        2.64200
H         25.00200       13.76000        2.29400
C         21.78600       17.92100        7.18400
O         20.84800       18.64000        6.86800
N         22.21700       17.86100        8.43300
H         22.99300       17.27200        8.68000
H         21.74400       18.42600        9.12100
