120
1 1
H          8.15700       13.15400        4.51900
C          8.70700       14.07000        4.31100
H          9.51900       14.17600        5.02800
H          8.04000       14.92800        4.38600
C          9.28100       14.00700        2.91700
O         10.48800       14.12300        2.73500
N          8.41700       13.85900        1.91300
H          7.43500       13.81800        2.14000
C          8.82100       13.76600        0.49300
H          9.46500       12.89200        0.39400
C          7.58100       13.53400       -0.39700
H          7.03200       12.68600        0.01500
C          6.62600       14.73600       -0.43900
H          6.31400       15.00500        0.57000
H          7.10400       15.59300       -0.91100
H          5.73600       14.47200       -1.01300
C          7.96500       13.17300       -1.83700
H          8.43700       14.01900       -2.33500
H          8.65200       12.32600       -1.83400
H          7.07000       12.89200       -2.39400
C          9.64700       14.97500        0.02700
O         10.49700       14.83900       -0.85000
N          9.46200       16.13500        0.66100
H          8.76600       16.13900        1.40000
C         10.18400       17.38900        0.42900
H         10.09000       17.65600       -0.62500
C          9.54500       18.50600        1.27900
H          9.68600       18.29100        2.34000
H         10.08700       19.42800        1.06100
C          8.05100       18.77500        0.99900
H          7.85300       19.81800        1.24700
H          7.84300       18.64800       -0.06300
C          7.06900       17.92300        1.81100
O          7.38500       16.88000        2.36200
N          5.82000       18.31900        1.89900
H          5.51500       19.17600        1.47500
H          5.20800       17.74800        2.45600
C         11.69200       17.30800        0.73700
O         12.46000       18.13200        0.23800
N         12.15200       16.31400        1.51100
H         11.49000       15.66600        1.93000
C         13.59100       16.04800        1.68200
H         14.08800       16.97600        1.97100
C         13.83200       15.01300        2.81200
H         13.06800       14.23800        2.75800
C         15.19800       14.31100        2.68500
H         15.23700       13.70100        1.78200
H         16.00300       15.04800        2.65900
H         15.35700       13.64500        3.53500
C         13.79600       15.65900        4.21900
H         13.99700       14.88400        4.96000
H         14.59400       16.40000        4.29300
C         12.47900       16.33500        4.62500
H         12.29600       17.21700        4.01200
H         11.65300       15.63400        4.52500
H         12.54600       16.65000        5.66600
C         14.19500       15.63300        0.33100
O         15.23400       16.16300       -0.06100
N         13.50200       14.78600       -0.43800
H         12.61000       14.45600       -0.09100
C         13.90400       14.38500       -1.79800
H         14.99400       14.37700       -1.84900
C         13.42700       12.95300       -2.12400
H         12.33900       12.91300       -2.06000
C         13.84500       12.51900       -3.53500
H         13.37500       13.15200       -4.28800
H         14.92900       12.57900       -3.64100
H         13.52800       11.49100       -3.71400
C         14.00300       11.93800       -1.12800
H         15.09300       11.97200       -1.14400
H         13.65300       12.15200       -0.11900
H         13.67600       10.93200       -1.39300
C         13.42500       15.40600       -2.83600
O         14.23400       16.13700       -3.40800
N         12.11000       15.52200       -3.04400
H         11.48500       15.00300       -2.43600
C         11.51200       16.41700       -4.03800
H         11.89800       16.13500       -5.01800
C          9.98700       16.24300       -4.06200
H          9.74800       15.22300       -4.36600
H          9.59500       16.39200       -3.05500
C          9.30700       17.21600       -5.00600
C          9.32700       16.97700       -6.39400
H          9.76400       16.06700       -6.78500
C          8.77100       17.92100       -7.27900
H          8.77500       17.74700       -8.34600
C          8.18400       19.10100       -6.77800
O          7.67300       20.01300       -7.64200
H          7.08900       20.64400       -7.21700
C          8.16800       19.34400       -5.38800
H          7.73000       20.25300       -5.00400
C          8.73200       18.40200       -4.50500
H          8.73200       18.59500       -3.44000
C         11.88600       17.88500       -3.78900
O         11.91100       18.34200       -2.64600
N         12.19600       18.62800       -4.85700
H         12.16000       18.18600       -5.76500
C         12.73400       19.99700       -4.76800
H         12.34200       20.44700       -3.85700
C         14.27600       19.91600       -4.66100
H         14.58200       18.93200       -4.30600
H         14.70500       20.03300       -5.65800
C         14.89400       20.97600       -3.73200
H         15.97600       20.96100       -3.86800
H         14.54300       21.95900       -4.04600
C         14.59800       20.81600       -2.22700
H         14.95400       21.72500       -1.74000
H         13.52400       20.76000       -2.04300
C         15.31300       19.63600       -1.54800
H         16.31000       19.51600       -1.98300
H         15.44100       19.88900       -0.49200
N         14.55500       18.36600       -1.62900
H         14.47600       18.00200       -2.57100
H         14.99700       17.63600       -1.07200
H         13.60700       18.46900       -1.26200
C         12.25900       20.94000       -5.88900
O         12.82900       21.99900       -6.09300
N         11.22400       20.57800       -6.63200
H         10.72300       19.72800       -6.43300
H         10.92900       21.20100       -7.36700
