63
1 1
H          6.39100        7.23800       -3.63100
C          6.50800        8.26700       -3.29500
H          5.65700        8.85800       -3.63100
H          7.42500        8.68500       -3.70800
C          6.57700        8.30100       -1.78800
O          5.74500        8.93500       -1.14100
N          7.56600        7.61500       -1.21600
H          8.23300        7.15500       -1.81800
C          7.85200        7.63700        0.22900
H          6.90200        7.67900        0.76100
C          8.56600        6.35700        0.71100
H          8.83900        6.50100        1.75700
C          7.60900        5.16200        0.65300
H          7.31700        4.95800       -0.37800
H          8.10100        4.27600        1.05900
H          6.71800        5.36800        1.24500
C          9.84300        6.01100       -0.06600
H          9.61400        5.79300       -1.10900
H         10.55100        6.83800       -0.02000
H         10.31500        5.13400        0.37700
C          8.64500        8.88600        0.62900
O          9.60500        9.27000       -0.02900
N          8.22900        9.51800        1.73000
H          7.43200        9.10800        2.20500
C          8.90000       10.65200        2.39500
H          9.95900       10.40600        2.49900
C          8.84500       11.97000        1.57700
H          8.87100       12.81500        2.26900
H          9.78100       12.02100        1.01800
C          7.73100       12.22600        0.54100
H          7.93400       13.20500        0.10400
H          7.81200       11.50300       -0.27100
C          6.28900       12.25800        1.06800
H          6.27900       12.57600        2.10900
H          5.74100       13.00900        0.49600
N          5.61000       10.96400        0.86800
H          5.62400       10.58500       -0.07400
C          5.01300       10.20100        1.75800
N          4.48500        9.08000        1.36800
H          4.59200        8.82900        0.38900
H          4.10900        8.43200        2.03200
N          4.97100       10.48400        3.02600
H          4.58300        9.82000        3.66600
H          5.55600       11.23800        3.36800
C          8.34300       10.78700        3.81100
O          7.37900       11.51100        4.05600
N          8.84900        9.93900        4.70400
H          9.63300        9.36700        4.42000
C          8.24600        9.62400        6.00100
H          7.96000       10.55000        6.50500
C          6.98100        8.75800        5.77800
H          6.74500        8.20700        6.68900
H          6.14400        9.42300        5.57100
C          7.08200        7.77000        4.62000
O          6.41200        7.90800        3.60600
N          7.96500        6.80300        4.68500
H          8.00200        6.13700        3.93600
H          8.63000        6.77500        5.45300
C          9.25100        8.88200        6.90000
O          9.90700        7.95200        6.44400
N          9.34500        9.22800        8.17600
H          8.79600        9.98500        8.55000
H          9.99900        8.72600        8.75700
