63
1 1
H          2.88100        8.00300        5.00900
C          3.55300        8.46100        4.28500
H          3.43800        9.54400        4.32500
H          3.31500        8.10500        3.28400
C          4.97800        8.10200        4.62700
O          5.79800        8.98000        4.87500
N          5.29600        6.80700        4.62300
H          4.57500        6.13800        4.40000
C          6.63500        6.30500        4.98500
H          6.81000        6.59000        6.02200
C          6.72300        4.76500        4.92200
H          7.74600        4.48100        5.17200
C          5.80100        4.13100        5.97000
H          6.03600        4.52100        6.96000
H          4.75500        4.33700        5.74200
H          5.95000        3.05000        5.98400
C          6.39000        4.16900        3.54800
H          5.37200        4.42100        3.25400
H          7.08500        4.53700        2.79500
H          6.48300        3.08200        3.59000
C          7.73700        6.96500        4.14500
O          7.62800        7.07100        2.91900
N          8.79900        7.44300        4.81500
H          8.79600        7.31000        5.81700
C          9.92100        8.22600        4.24500
H         10.57300        8.50100        5.07600
C         10.77600        7.28100        3.34800
H         11.44600        6.74200        4.02000
H         10.14300        6.51100        2.90900
C         11.65400        7.84600        2.20700
H         12.34600        8.58200        2.61800
H         12.26100        7.01700        1.84000
C         10.94100        8.45800        0.97900
H         11.02000        9.54400        1.04700
H         11.47500        8.14900        0.07800
N          9.52000        8.07200        0.86500
H          9.20600        7.29000        1.42200
C          8.55600        8.75300        0.27700
N          7.32300        8.39200        0.44600
H          7.12300        7.68100        1.14000
H          6.59200        8.99500        0.08900
N          8.76200        9.82000       -0.43900
H          9.69900       10.13100       -0.61300
H          7.95800       10.34300       -0.76300
C          9.54000        9.60500        3.65700
O         10.42900       10.36000        3.28300
N          8.26200        9.99000        3.60900
H          7.55700        9.39200        4.02400
C          7.78900       11.20700        2.92800
H          8.41900       11.33700        2.04600
C          6.34400       10.97800        2.43800
H          6.13700        9.91400        2.34400
H          5.63200       11.38300        3.15800
C          6.11200       11.61000        1.07900
O          6.15100       10.93700        0.05700
N          5.95000       12.90600        1.01700
H          5.77900       13.32900        0.12300
H          6.04600       13.45300        1.86900
C          7.94700       12.52200        3.73200
O          7.20700       13.47500        3.51200
N          8.87800       12.60600        4.67200
H          8.95900       13.46700        5.18900
H          9.53200       11.85100        4.80200
