63
1 1
H          7.76300        3.70400        2.33800
C          7.90500        4.59400        2.94900
H          8.89300        5.01000        2.75900
H          7.82100        4.33900        4.00500
C          6.86000        5.62400        2.59900
O          7.19700        6.75000        2.24800
N          5.58300        5.24500        2.70600
H          5.40100        4.28900        2.97100
C          4.42900        6.11800        2.39100
H          4.55800        6.47200        1.36800
C          3.11600        5.30700        2.43500
H          3.24400        4.43600        1.79200
C          2.75500        4.80400        3.84000
H          3.57000        4.21400        4.25700
H          2.53100        5.63800        4.50500
H          1.87200        4.16600        3.77800
C          1.93100        6.11000        1.88900
H          1.05100        5.46900        1.82700
H          1.70400        6.95800        2.53500
H          2.16200        6.47500        0.88800
C          4.37100        7.37000        3.28000
O          3.98000        8.44700        2.81800
N          4.85100        7.27100        4.52900
H          5.19800        6.36500        4.81400
C          5.31200        8.42800        5.30400
H          5.18000        9.28700        4.67200
C          4.49700        8.67600        6.58400
H          4.48000        7.76300        7.18200
H          5.00800        9.43900        7.17400
C          3.04600        9.15800        6.35800
H          2.45100        8.30900        6.01900
H          2.64900        9.46300        7.32600
C          2.81900       10.31800        5.36100
H          2.79800        9.90800        4.35400
H          1.82500       10.73300        5.54400
N          3.81900       11.40900        5.46000
H          3.84600       11.92200        6.32600
C          4.68800       11.77700        4.52800
N          4.72800       11.25900        3.33400
H          5.50800       11.50300        2.74100
H          4.12600       10.48200        3.08300
N          5.63000       12.63100        4.79200
H          6.39400       12.72000        4.13000
H          5.76900       13.01100        5.71200
C          6.82100        8.39600        5.51900
O          7.44000        7.34000        5.57100
N          7.38600        9.59800        5.54100
H          6.78000       10.40100        5.58600
C          8.78900        9.90600        5.28900
H          9.42400        9.20600        5.83600
C          9.05700        9.75500        3.77200
H         10.00700       10.21800        3.50700
H          9.14800        8.69000        3.55300
C          7.97100       10.33500        2.86900
O          7.57000       11.48700        2.97000
N          7.39000        9.54000        2.00300
H          6.75000        9.92400        1.33500
H          7.59900        8.54200        1.99600
C          9.09900       11.33100        5.79400
O          8.18800       12.10800        6.08000
N         10.36800       11.69600        5.91300
H         10.56900       12.62700        6.24300
H         11.11100       11.05700        5.67900
