63
1 1
H         -1.68400        9.38700        0.36400
C         -1.75800        9.98200        1.27400
H         -2.30000        9.42100        2.03400
H         -2.29300       10.90400        1.05300
C         -0.37400       10.31500        1.77400
O          0.61400        9.89400        1.17900
N         -0.29900       11.03300        2.89400
H         -1.17300       11.32000        3.31100
C          0.93400       11.61300        3.47800
H          1.47600       12.10200        2.66800
C          0.58400       12.71600        4.50500
H          1.51100       13.17200        4.85400
C         -0.25000       13.83300        3.86600
H         -1.23600       13.47200        3.57500
H         -0.37500       14.64700        4.58200
H          0.26600       14.22500        2.98900
C         -0.16800       12.17100        5.72800
H          0.43600       11.42200        6.23900
H         -0.35700       12.98600        6.42800
H         -1.12200       11.73300        5.43700
C          1.93200       10.60600        4.08700
O          2.91500       11.01200        4.70000
N          1.71800        9.29300        3.92000
H          0.90700        9.04900        3.37400
C          2.54400        8.18500        4.45700
H          2.76100        8.43000        5.49900
C          1.71900        6.87500        4.49500
H          2.37600        6.04900        4.77500
H          1.00300        6.97600        5.31200
C          0.90300        6.45400        3.25200
H          0.39100        5.52700        3.51500
H          0.12700        7.19400        3.05500
C          1.68500        6.18100        1.95500
H          2.60800        5.65200        2.19100
H          1.08100        5.51600        1.33400
N          1.93300        7.41500        1.18300
H          1.17700        8.08400        1.12200
C          3.00400        7.75300        0.49400
N          2.99700        8.85900       -0.18600
H          2.18800        9.46300       -0.13700
H          3.85000        9.14200       -0.65400
N          4.10300        7.06200        0.48400
H          4.22100        6.35100        1.18800
H          4.89900        7.43500       -0.01700
C          3.94400        8.03800        3.82000
O          4.31200        6.96600        3.34700
N          4.71400        9.12500        3.76700
H          4.33200        9.97000        4.17900
C          5.98100        9.23700        3.03000
H          6.26300        8.24200        2.68000
C          5.74800       10.13700        1.79800
H          4.68600       10.19700        1.56700
H          6.09800       11.14900        2.00200
C          6.45800        9.60900        0.56500
O          5.82500        9.14200       -0.37100
N          7.76700        9.59800        0.55300
H          8.23600        9.26000       -0.26800
H          8.27700        9.91300        1.37500
C          7.17600        9.72600        3.87900
O          8.24000        9.99400        3.33300
N          7.03500        9.87400        5.19000
H          7.82800       10.20200        5.71900
H          6.16000        9.66100        5.63900
