116
0 1
H         -3.63200       15.29000       -6.06800
C         -4.02300       14.30500       -5.81800
H         -5.02200       14.18600       -6.23300
H         -4.06200       14.19300       -4.73500
C         -3.11100       13.24800       -6.39100
O         -2.54900       12.44800       -5.64900
N         -2.96400       13.23900       -7.71500
H         -3.42400       13.95500       -8.25400
C         -2.02600       12.34400       -8.41400
H         -2.13500       11.34800       -7.98400
C         -2.34000       12.21800       -9.92100
H         -1.53200       11.65100      -10.38500
C         -3.63400       11.42000      -10.12100
H         -3.81200       11.26900      -11.18600
H         -3.54500       10.44300       -9.64400
H         -4.48200       11.95300       -9.69000
C         -2.47800       13.55100      -10.67000
H         -2.65300       13.35700      -11.72900
H         -3.31200       14.13300      -10.27800
H         -1.56100       14.13200      -10.58100
C         -0.57700       12.78000       -8.17100
O         -0.19500       13.91200       -8.45500
N          0.22800       11.87200       -7.61800
H         -0.14600       10.95800       -7.40900
C          1.62100       12.09200       -7.22400
H          2.13400       12.65300       -8.00600
C          1.63900       12.92600       -5.92800
H          1.18900       13.90000       -6.12500
H          1.02000       12.43300       -5.18300
C          3.01300       13.15200       -5.33500
C          3.87000       14.12400       -5.88800
H          3.52500       14.75400       -6.69700
C          5.17700       14.27400       -5.38500
H          5.84600       15.01400       -5.79700
C          5.63600       13.44300       -4.34100
O          6.91200       13.57000       -3.89600
H          7.18000       12.84100       -3.30900
C          4.77100       12.47300       -3.79000
H          5.11700       11.82400       -3.00600
C          3.45800       12.33900       -4.27500
H          2.80200       11.59000       -3.85000
C          2.33600       10.73400       -7.06000
O          1.67900        9.69100       -7.01700
N          3.67000       10.73100       -6.95900
H          4.13300       11.62900       -6.92600
C          4.50500        9.54800       -6.67900
H          4.08800        8.72500       -7.26100
C          5.94100        9.76800       -7.22000
H          5.83100        9.97100       -8.28700
C          6.65900       10.98500       -6.60500
H          7.63400       11.12300       -7.07000
H          6.08200       11.89300       -6.77000
H          6.80600       10.84500       -5.53400
C          6.80000        8.48900       -7.09000
H          7.20600        8.41500       -6.08200
H          6.17200        7.61600       -7.27000
C          7.96500        8.43400       -8.08600
H          8.66600        9.24800       -7.89900
H          8.49200        7.48700       -7.97000
H          7.58700        8.50600       -9.10700
C          4.39300        9.09400       -5.20400
O          5.35000        9.07500       -4.43300
N          3.17800        8.74300       -4.78300
H          2.42000        8.79900       -5.45400
C          2.89500        8.18900       -3.45500
H          3.23300        8.91100       -2.71300
C          1.38100        8.00100       -3.29100
H          1.02300        7.29900       -4.04500
H          1.18000        7.56800       -2.31000
C          0.59700        9.28200       -3.40100
N          0.66000       10.33600       -2.49000
C         -0.21500       11.25300       -2.93200
H         -0.40800       12.20100       -2.44700
N         -0.80600       10.83500       -4.06400
H         -1.49700       11.36700       -4.59600
C         -0.30200        9.59300       -4.38000
H         -0.56300        8.97400       -5.22700
C          3.62400        6.84800       -3.23100
O          3.77600        6.08100       -4.18200
N          4.04100        6.51500       -1.99200
C          4.58100        5.19400       -1.69100
H          5.46800        4.98400       -2.28700
H          3.81700        4.44100       -1.89000
C          4.92600        5.19600       -0.20400
H          5.95600        5.52700       -0.06400
H          4.76900        4.21600        0.24900
C          3.96100        6.24200        0.35200
H          4.29500        6.63000        1.31500
H          2.96600        5.80400        0.45000
C          3.94800        7.30400       -0.75600
H          3.00200        7.84400       -0.71300
C          5.09300        8.32300       -0.55800
O          5.22200        8.88400        0.52700
N          5.95200        8.54800       -1.55800
H          5.77100        8.12400       -2.45900
C          7.21800        9.28800       -1.44000
H          7.67000        9.01200       -0.48700
C          8.17700        8.81700       -2.54800
H          7.81300        9.17100       -3.51300
H          9.15300        9.27600       -2.38400
C          8.35800        7.31000       -2.61200
C          7.64100        6.54500       -3.55200
H          6.96200        7.02600       -4.24100
C          7.80000        5.14900       -3.59900
H          7.24600        4.56900       -4.32500
C          8.66900        4.50900       -2.69800
H          8.78900        3.43600       -2.73300
C          9.38200        5.26800       -1.75300
H         10.05200        4.77700       -1.06100
C          9.22800        6.66600       -1.71100
H          9.77900        7.24600       -0.98400
C          7.04400       10.82300       -1.40200
O          7.60700       11.56600       -2.20100
N          6.22400       11.34000       -0.49800
H          5.74800       10.72000        0.14600
H          6.09800       12.33800       -0.46500
