116
0 1
H         11.36300       15.38600        1.36300
C         12.11600       15.93500        1.92700
H         12.32800       16.88700        1.44400
H         13.02900       15.34200        1.98000
C         11.61200       16.17800        3.32800
O         12.18700       15.68800        4.28800
N         10.51000       16.91700        3.45200
H         10.09800       17.28100        2.60800
C          9.84100       17.23500        4.73600
H         10.62300       17.43400        5.47000
C          8.99700       18.52500        4.61700
H          8.55100       18.74100        5.58900
C          9.87700       19.72800        4.25300
H         10.68500       19.82300        4.97900
H         10.30100       19.61200        3.25700
H          9.27800       20.63900        4.28000
C          7.86600       18.41700        3.58300
H          7.28500       19.33900        3.58400
H          8.26600       18.25300        2.58300
H          7.19700       17.59700        3.84600
C          9.02800       16.05900        5.32100
O          8.04600       16.25900        6.03100
N          9.39300       14.82300        4.97800
H         10.27700       14.71400        4.49300
C          8.65900       13.59100        5.27500
H          8.28000       13.64300        6.29600
C          7.46400       13.45300        4.31000
H          6.88900       12.56900        4.58800
H          6.80200       14.31000        4.44500
C          7.83200       13.35500        2.83700
C          7.92900       12.09600        2.21000
H          7.71800       11.19200        2.76500
C          8.31100       12.01200        0.85600
H          8.38300       11.05400        0.36500
C          8.61900       13.18300        0.13400
O          9.07500       13.09500       -1.14100
H          9.56400       12.26800       -1.27600
C          8.48300       14.44400        0.74800
H          8.69800       15.33300        0.17700
C          8.08100       14.52700        2.09500
H          7.97600       15.49200        2.56800
C          9.59500       12.37500        5.16700
O         10.68700       12.46600        4.60800
N          9.16200       11.21700        5.67800
H          8.25500       11.19400        6.11400
C          9.88600        9.94200        5.53700
H         10.93700       10.15200        5.73800
C          9.43500        8.92500        6.61900
H          9.72300        9.34800        7.58300
C          7.91000        8.70300        6.68000
H          7.54500        8.27600        5.74600
H          7.67300        8.01100        7.49000
H          7.38800        9.63800        6.87700
C         10.13300        7.55100        6.50400
H          9.81000        6.92800        7.33900
H          9.83200        7.04900        5.58400
C         11.66500        7.62600        6.54800
H         12.07400        6.61600        6.57500
H         12.04700        8.13000        5.66000
H         11.98600        8.16300        7.44100
C          9.82300        9.43400        4.08200
O          8.97300        8.63100        3.70900
N         10.70000        9.97200        3.23400
H         11.28700       10.71500        3.59500
C         10.78600        9.67300        1.80200
H          9.78600        9.67600        1.38100
C         11.56600       10.80700        1.12400
H         11.05400       11.75400        1.29800
H         12.55700       10.88200        1.57500
C         11.72500       10.61200       -0.36000
N         10.71000       10.73400       -1.31500
C         11.29700       10.48900       -2.49800
H         10.78800       10.50400       -3.45400
N         12.59600       10.19000       -2.32800
H         13.24100        9.89000       -3.05800
C         12.88200       10.25700       -0.98500
H         13.83200       10.06100       -0.50400
C         11.44600        8.30500        1.53100
O         12.64500        8.17200        1.77300
N         10.73000        7.29100        0.99600
C          9.29300        7.23900        0.76000
H          9.08800        7.47900       -0.28400
H          8.72600        7.90000        1.40900
C          8.90600        5.79400        1.04800
H          7.98700        5.51000        0.53500
H          8.81100        5.64800        2.12600
C         10.11500        5.02400        0.52300
H          9.98700        4.85400       -0.54800
H         10.23700        4.07200        1.04000
C         11.30900        5.95900        0.77800
H         11.82700        5.64200        1.68500
C         12.28700        5.89100       -0.40300
O         13.17800        5.04500       -0.43500
N         12.09700        6.74600       -1.41100
H         11.37500        7.44200       -1.30300
C         12.72000        6.61300       -2.73100
H         12.94800        5.55600       -2.88500
C         11.70300        7.00600       -3.81800
H         11.61200        8.08900       -3.85600
H         12.08100        6.67900       -4.78700
C         10.32100        6.41000       -3.60300
C         10.10500        5.03500       -3.81600
H         10.91200        4.40900       -4.16800
C          8.84300        4.47000       -3.56000
H          8.68100        3.41400       -3.72400
C          7.79200        5.27700       -3.08900
H          6.82200        4.84200       -2.89500
C          8.00300        6.65000       -2.87600
H          7.19400        7.27100       -2.51700
C          9.26500        7.21600       -3.13100
H          9.42100        8.27000       -2.95500
C         14.06700        7.35200       -2.81400
O         14.26300        8.24900       -3.63100
N         14.99000        7.04000       -1.91500
H         15.87200        7.52400       -1.93000
H         14.78600        6.32700       -1.22600
