116
0 1
H          9.67600        7.21800        4.54700
C          9.92600        8.13400        5.07900
H         11.00100        8.17200        5.24900
H          9.40800        8.16100        6.03600
C          9.51900        9.32100        4.24200
O         10.36800       10.07400        3.78300
N          8.21300        9.51200        4.05300
H          7.58100        8.84200        4.46200
C          7.64400       10.50000        3.10600
H          8.06400       10.28200        2.12800
C          6.11600       10.34700        2.97700
H          5.76200       11.06600        2.23800
C          5.74200        8.95000        2.46600
H          4.67300        8.91200        2.25600
H          6.28500        8.73700        1.54400
H          5.98300        8.18600        3.20500
C          5.37300       10.61600        4.29300
H          4.29900       10.52000        4.12900
H          5.67700        9.90700        5.06200
H          5.57300       11.63200        4.63500
C          8.00500       11.96800        3.38400
O          7.84300       12.80600        2.50500
N          8.54500       12.28100        4.56400
H          8.69700       11.52900        5.21800
C          9.13400       13.58500        4.90400
H          8.42600       14.37200        4.64000
C          9.36300       13.62900        6.42400
H          9.92800       14.52600        6.68000
H          8.39100       13.71400        6.91300
C         10.08200       12.41000        6.97900
C          9.34100       11.37200        7.58100
H          8.27100       11.46800        7.70100
C          9.99600       10.21200        8.03500
H          9.44300        9.41200        8.50400
C         11.39200       10.08400        7.88300
O         12.01100        8.95000        8.30100
H         12.96000        8.99200        8.17900
C         12.13600       11.12800        7.29200
H         13.20400       11.03500        7.17600
C         11.47900       12.29100        6.84500
H         12.04700       13.09000        6.38700
C         10.44000       13.89800        4.13900
O         10.90900       15.03200        4.17800
N         11.03000       12.91400        3.45000
H         10.63600       11.98700        3.54700
C         12.18300       13.08400        2.54600
H         12.19300       14.12500        2.22300
C         13.50100       12.81300        3.31500
H         13.51400       13.46900        4.18700
C         13.60000       11.36400        3.82900
H         14.49700       11.24800        4.43700
H         12.73700       11.11600        4.44500
H         13.65200       10.66200        2.99600
C         14.77600       13.10900        2.49500
H         15.64600       12.88300        3.11300
H         14.81800       12.46400        1.61700
C         14.89600       14.57100        2.04800
H         15.86900       14.72600        1.57900
H         14.12100       14.81300        1.32100
H         14.80800       15.23300        2.91000
C         12.05400       12.24500        1.26300
O         12.53500       12.65000        0.20700
N         11.35500       11.10700        1.32500
H         11.03900       10.80500        2.23800
C         11.10400       10.18400        0.21100
H         11.54900       10.57900       -0.70200
C         11.79300        8.84100        0.52700
H         11.36300        8.43200        1.44300
H         11.57800        8.13700       -0.27700
C         13.29400        8.89000        0.70100
N         14.04200        7.93000        1.38400
C         15.32300        8.30500        1.27700
H         16.15600        7.76400        1.70600
N         15.42200        9.43500        0.55800
H         16.28200        9.91500        0.33300
C         14.15500        9.81200        0.17500
H         13.88700       10.66800       -0.42800
C          9.59400       10.02900       -0.07000
O          9.03600        8.95500        0.15600
N          8.88400       11.07600       -0.54500
C          9.41100       12.40900       -0.81700
H         10.30000       12.37200       -1.44600
H          9.63400       12.90800        0.12700
C          8.29400       13.17200       -1.52500
H          8.33600       12.98000       -2.59900
H          8.34300       14.24100       -1.31900
C          7.04200       12.53400       -0.93000
H          6.16200       12.71300       -1.54800
H          6.87100       12.93400        0.06900
C          7.43800       11.05300       -0.83200
H          6.91000       10.60500        0.00800
C          7.06300       10.24300       -2.09700
O          6.12700       10.58400       -2.81500
N          7.81000        9.18400       -2.41400
H          8.49400        8.88400       -1.73000
C          7.80500        8.48500       -3.70600
H          7.63600        9.23000       -4.48300
C          9.20100        7.87700       -3.94300
H          9.30200        7.00700       -3.29200
H          9.25400        7.52200       -4.97400
C         10.39100        8.80000       -3.70000
C         10.33900       10.17100       -4.03100
H          9.45100       10.59300       -4.47800
C         11.44500       11.00500       -3.78300
H         11.39700       12.05500       -4.03400
C         12.61600       10.47200       -3.22000
H         13.46700       11.11400       -3.03600
C         12.68100        9.10400       -2.90400
H         13.58300        8.68900       -2.47600
C         11.57100        8.27400       -3.14000
H         11.63000        7.22300       -2.89100
C          6.65700        7.46300       -3.86400
O          6.83500        6.37500       -4.39900
N          5.46300        7.77600       -3.38200
H          5.31600        8.69600       -2.99100
H          4.71500        7.11000       -3.47900
