84
0 1
H         12.23300       17.26000       11.57700
C         11.62100       17.35700       10.68100
H         11.53200       18.40800       10.41100
H         10.63500       16.93700       10.86700
C         12.28100       16.60300        9.55200
O         13.33900       16.01500        9.73700
N         11.66400       16.63400        8.37300
H         10.80200       17.15400        8.30300
C         12.12600       15.96600        7.14500
H         12.48700       14.97400        7.42100
C         10.92500       15.74100        6.20400
H         11.26800       15.66000        5.17500
H         10.51700       14.76000        6.45000
C          9.78500       16.72300        6.27900
C          8.55400       16.42400        6.75500
H          8.25600       15.44800        7.12100
N          7.74400       17.53900        6.70000
H          6.77600       17.54100        6.98800
C          8.41200       18.62500        6.18300
C          8.02200       19.95000        5.93800
H          7.01900       20.27600        6.16500
C          8.95400       20.84500        5.38700
H          8.67200       21.87000        5.18600
C         10.25500       20.40400        5.09300
H         10.97000       21.09200        4.66200
C         10.63400       19.07100        5.34500
H         11.63500       18.75700        5.10200
C          9.72600       18.13900        5.89700
C         13.34400       16.65500        6.49000
O         13.33000       17.05800        5.32600
N         14.44300       16.77700        7.24300
H         14.38300       16.43000        8.19600
C         15.70300       17.40700        6.81000
H         15.48900       18.43900        6.52700
C         16.70200       17.43100        7.97900
H         16.91200       16.41000        8.30000
H         17.63500       17.88300        7.63700
C         16.18800       18.23900        9.17600
H         15.93300       19.24500        8.83900
H         15.28700       17.76800        9.56600
S         17.38500       18.37400       10.52900
C         16.37100       19.26100       11.74000
H         15.49000       18.66600       11.98500
H         16.95500       19.43000       12.64600
H         16.06100       20.22000       11.32700
C         16.34700       16.74200        5.57900
O         17.19900       17.34200        4.93000
N         15.89300       15.54300        5.19900
H         15.16700       15.12400        5.76400
C         16.20600       14.88100        3.93000
H         17.28600       14.73800        3.86400
C         15.51700       13.50500        3.94100
H         15.73300       12.98000        3.01000
H         15.90700       12.90800        4.76500
C         14.01300       13.63400        4.11400
O         13.51000       13.73700        5.22000
N         13.27200       13.70700        3.03600
H         13.69200       13.71800        2.12400
H         12.29800       13.93200        3.15500
C         15.78400       15.68400        2.67700
O         16.25000       15.36900        1.58600
N         14.90400       16.68500        2.80600
H         14.47400       16.83600        3.71200
C         14.55900       17.62800        1.73000
H         14.80900       17.17300        0.77300
C         13.04200       17.88600        1.73700
H         12.78500       18.40000        2.66500
H         12.79800       18.55900        0.91400
C         12.16900       16.64900        1.59000
C         11.13700       16.40000        2.51400
H         10.96900       17.08900        3.32900
C         10.31500       15.26800        2.37700
H          9.51900       15.09200        3.08800
C         10.51300       14.38200        1.30300
H          9.87200       13.51900        1.18800
C         11.53400       14.63000        0.36900
H         11.67800       13.95900       -0.46600
C         12.35900       15.76200        0.51100
H         13.13200       15.95400       -0.21900
C         15.36600       18.94400        1.77800
O         15.11100       19.86000        1.00500
N         16.34100       19.08700        2.66800
H         16.85800       19.95000        2.67200
H         16.57500       18.33700        3.30500
