83
0 1
H         10.52000       13.98500       -8.13400
C         10.97200       13.67900       -7.19300
H         11.57300       14.49400       -6.79500
H         11.59800       12.80200       -7.35300
C          9.88000       13.35500       -6.20400
O          8.77600       13.88500       -6.31300
N         10.16400       12.50200       -5.22200
H         11.11000       12.14100       -5.15000
C          9.19300       12.17300       -4.17400
H          8.25300       11.92000       -4.66700
C          9.62400       10.93400       -3.37400
H         10.51200       11.16100       -2.79200
H          8.83300       10.69000       -2.66400
C          9.90300        9.71000       -4.22600
C          8.84400        8.87100       -4.62700
H          7.83200        9.09500       -4.31900
C          9.10000        7.74200       -5.42900
H          8.28800        7.10100       -5.73500
C         10.42200        7.45100       -5.83400
O         10.67800        6.36600       -6.60900
H          9.88300        5.87800       -6.82100
C         11.48000        8.29100       -5.43300
H         12.48700        8.06200       -5.74900
C         11.22200        9.41800       -4.62900
H         12.03900       10.06100       -4.32900
C          8.94900       13.40400       -3.28600
O          9.87500       13.96000       -2.69300
N          7.70000       13.88200       -3.25500
H          6.99300       13.40300       -3.79000
C          7.35800       15.18400       -2.66500
H          6.27900       15.32100       -2.70700
H          7.66900       15.19700       -1.61900
C          8.01600       16.38000       -3.37300
O          8.18100       17.43200       -2.76200
N          8.46500       16.21400       -4.62400
H          8.31900       15.31400       -5.06800
C          9.28200       17.17500       -5.37300
H          9.28400       16.89400       -6.42700
H          8.84400       18.16800       -5.28000
C         10.73600       17.24500       -4.89200
O         11.65500       17.10400       -5.69300
N         10.94500       17.42000       -3.58500
H         10.12200       17.52300       -3.00100
C         12.25900       17.59900       -2.96000
H         12.75100       18.45300       -3.42500
C         12.03500       17.91700       -1.47200
H         11.50900       18.87000       -1.39400
H         11.38500       17.15100       -1.04700
C         13.30000       18.00100       -0.63500
C         14.27100       18.98100       -0.91600
H         14.12100       19.67600       -1.72900
C         15.44700       19.05200       -0.14700
H         16.19400       19.80000       -0.37200
C         15.65500       18.14500        0.90700
H         16.56100       18.19800        1.49400
C         14.68600       17.16800        1.19300
H         14.84600       16.47000        2.00300
C         13.51000       17.09700        0.42500
H         12.77100       16.34200        0.65000
C         13.20500       16.39900       -3.13800
O         14.37700       16.58800       -3.45900
N         12.71700       15.16500       -2.96200
H         11.73200       15.05500       -2.75400
C         13.52900       13.95000       -3.10700
H         14.56200       14.19000       -2.85100
C         13.05000       12.87100       -2.11900
H         12.04200       12.59000       -2.40200
H         13.68600       11.99100       -2.23000
C         13.03200       13.28900       -0.63700
H         12.38100       14.15300       -0.50600
C         12.47200       12.14500        0.20800
H         12.42800       12.44700        1.25400
H         11.46400       11.90300       -0.12900
H         13.10600       11.26300        0.11300
C         14.42700       13.63500       -0.11100
H         15.10600       12.79900       -0.26900
H         14.81000       14.51600       -0.62600
H         14.37300       13.86100        0.95300
C         13.55800       13.47900       -4.57300
O         13.08700       12.39800       -4.91900
N         14.06300       14.31600       -5.46600
H         14.39000       15.22300       -5.15800
H         14.07500       14.05300       -6.43600
