83
0 1
H         10.67900       17.23900       -4.14400
C         11.69400       17.34300       -3.76700
H         12.29300       17.91700       -4.47200
H         12.13600       16.35600       -3.63500
C         11.67300       18.05600       -2.43700
O         12.45900       18.97000       -2.22200
N         10.79500       17.63900       -1.52300
H         10.21000       16.84700       -1.77200
C         10.64800       18.23600       -0.18200
H         10.76300       19.31400       -0.30900
C          9.21500       18.03600        0.35900
H          9.14800       18.49400        1.34700
H          8.53900       18.60100       -0.28300
C          8.69000       16.61000        0.44900
C          7.93600       16.07500       -0.61400
H          7.75200       16.66500       -1.50200
C          7.43600       14.76100       -0.53900
H          6.87400       14.34200       -1.36000
C          7.68300       13.97400        0.60300
O          7.22200       12.69700        0.65600
H          7.36300       12.30000        1.51600
C          8.41400       14.51600        1.68200
H          8.59400       13.92400        2.56700
C          8.90700       15.83400        1.60600
H          9.44700       16.25400        2.44400
C         11.77500       17.84200        0.80300
O         11.53000       17.47700        1.95200
N         13.03400       17.88600        0.35500
H         13.16000       18.21700       -0.59700
C         14.24900       17.63300        1.14700
H         15.11200       18.01200        0.59800
H         14.17600       18.18500        2.08400
C         14.51100       16.16100        1.48900
O         15.62600       15.67800        1.30900
N         13.48900       15.41900        1.92400
H         12.60800       15.90200        2.06700
C         13.54600       13.97800        2.20700
H         14.44200       13.76300        2.79100
H         12.67400       13.69300        2.79600
C         13.58000       13.11900        0.94000
O         12.66400       12.32900        0.71700
N         14.59300       13.32000        0.09200
H         15.28200       14.00600        0.38500
C         14.74700       12.78000       -1.26800
H         15.62700       13.26400       -1.69300
C         15.05600       11.27200       -1.24500
H         14.17200       10.72400       -0.91700
H         15.27700       10.94800       -2.26300
C         16.22200       10.89000       -0.35200
C         15.98700       10.36200        0.93200
H         14.97400       10.21900        1.28200
C         17.06800       10.02300        1.76600
H         16.88600        9.61800        2.75100
C         18.38800       10.21100        1.31700
H         19.21900        9.95200        1.95800
C         18.62600       10.73800        0.03600
H         19.64000       10.88500       -0.30800
C         17.54500       11.07700       -0.79800
H         17.73200       11.48500       -1.78100
C         13.58900       13.16300       -2.20600
O         13.72900       14.08500       -3.00300
N         12.43300       12.50600       -2.07600
H         12.38300       11.81700       -1.33600
C         11.17400       12.93800       -2.69100
H         11.36800       13.22000       -3.72800
C         10.19900       11.74400       -2.66500
H         10.64500       10.91800       -3.22100
H         10.07700       11.42400       -1.62900
C          8.79700       12.02700       -3.24200
H          8.32400       12.83300       -2.68400
C          8.84400       12.40600       -4.72400
H          7.83000       12.53400       -5.10200
H          9.37200       13.35100       -4.84800
H          9.34800       11.62800       -5.29700
C          7.92500       10.78000       -3.09600
H          7.84300       10.51300       -2.04200
H          6.92500       10.98500       -3.47900
H          8.35900        9.94800       -3.65000
C         10.58800       14.16900       -1.97600
O          9.96100       15.01900       -2.59700
N         10.79700       14.30000       -0.67200
H         10.33400       15.05000       -0.18200
H         11.30900       13.58400       -0.17700
