91
1 1
H         12.53100        6.07200        1.35100
C         11.60400        6.21000        0.79500
H         11.03700        5.28100        0.79500
H         11.84100        6.49400       -0.23000
C         10.79200        7.30400        1.44300
O         11.20100        7.86400        2.45500
N          9.62200        7.59900        0.87700
H          9.37900        7.11800        0.02200
C          8.79000        8.75300        1.25300
H          9.34600        9.65900        1.01100
C          7.51100        8.75100        0.40400
H          6.86700        7.93300        0.73200
H          6.97000        9.68300        0.58100
C          7.76300        8.61500       -1.08600
C          7.47700        7.40100       -1.74400
H          7.03600        6.57400       -1.20500
C          7.75200        7.26400       -3.11800
H          7.53200        6.34300       -3.63800
C          8.31000        8.34000       -3.84000
O          8.57000        8.19500       -5.16400
H          8.86500        9.01000       -5.57300
C          8.59400        9.55600       -3.18100
H          9.02000       10.38200       -3.73200
C          8.32100        9.69000       -1.80600
H          8.53900       10.62400       -1.30500
C          8.44100        8.82200        2.75000
O          8.45900        9.90500        3.32900
N          8.19800        7.67400        3.39700
H          8.21000        6.82300        2.85600
C          7.91200        7.57700        4.84200
H          7.07000        8.23200        5.07300
C          7.50100        6.12700        5.20700
H          8.29600        5.45500        4.87800
C          7.33200        5.95200        6.72900
H          6.55700        6.62300        7.10200
H          7.05800        4.92500        6.96900
H          8.26500        6.15900        7.25200
C          6.19300        5.73900        4.47300
H          5.36900        6.34400        4.85500
H          6.29300        5.95000        3.40900
C          5.81600        4.25600        4.59200
H          6.65700        3.63100        4.28700
H          5.53000        4.01100        5.61400
H          4.96700        4.04800        3.94000
C          9.10400        8.07300        5.68200
O          8.91800        8.77900        6.67300
N         10.33800        7.79500        5.25400
H         10.44800        7.28600        4.38700
C         11.53000        8.41900        5.83100
H         11.52000        8.31000        6.91600
H         12.41700        7.92400        5.43600
C         11.60800        9.90500        5.47500
O         11.74800       10.74500        6.36200
N         11.44100       10.23000        4.19000
H         11.29600        9.46300        3.54100
C         11.68100       11.56200        3.61400
H         12.66500       11.89400        3.94900
C         11.73500       11.43800        2.08700
H         12.37500       10.59900        1.80900
H         10.73100       11.26000        1.70200
O         12.25700       12.61600        1.51300
H         11.83100       13.38300        1.92200
C         10.68300       12.67200        3.99100
O         10.97100       13.83500        3.71100
N          9.52100       12.37100        4.59400
H          9.29500       11.38600        4.67500
C          8.47200       13.35600        4.96200
H          8.38400       14.03700        4.11300
C          7.08800       12.67600        5.08300
H          6.35600       13.42300        5.39400
H          6.79600       12.36500        4.07900
C          6.93100       11.43600        5.98700
H          5.88300       11.13900        5.93500
H          7.50700       10.61600        5.57000
C          7.28600       11.59000        7.47400
H          6.89900       12.54000        7.84200
H          6.77200       10.79700        8.02000
N          8.73400       11.43400        7.72300
H          9.15300       10.60600        7.31100
C          9.48400       12.10100        8.58100
N         10.73400       11.78500        8.74100
H         11.16200       11.17600        8.04900
H         11.31200       12.27800        9.39100
N          9.03100       13.10800        9.27200
H          8.16800       13.52500        8.94900
H          9.61300       13.59500        9.92200
C          8.81700       14.30800        6.12800
O          8.01400       14.54900        7.02400
N         10.02700       14.83500        6.18000
H         10.66700       14.66500        5.41500
H         10.24300       15.49000        6.91200
