84
0 1
H         -1.68100        9.70400       -0.50300
C         -0.74800       10.20000       -0.24600
H         -0.03000        9.46500        0.11600
H         -0.92100       10.94900        0.52500
C         -0.18100       10.87200       -1.47400
O          0.92500       10.55700       -1.89600
N         -0.94000       11.80000       -2.05400
H         -1.82200       12.03400       -1.63200
C         -0.47500       12.60400       -3.18700
H         -0.06000       11.91900       -3.92500
C         -1.67300       13.31700       -3.83300
H         -2.40900       12.57000       -4.13200
H         -2.14400       13.96100       -3.09100
C         -1.31000       14.15500       -5.04400
C         -0.90600       15.49300       -4.87500
H         -0.89700       15.93100       -3.88800
C         -0.50200       16.25600       -5.98600
H         -0.17600       17.27800       -5.86500
C         -0.51600       15.68500       -7.27500
O         -0.12900       16.42600       -8.34500
H         -0.17800       15.93600       -9.16500
C         -0.93400       14.34700       -7.44800
H         -0.94800       13.90900       -8.43400
C         -1.32900       13.58300       -6.33200
H         -1.63800       12.55600       -6.46300
C          0.62200       13.60400       -2.75100
O          0.48100       14.23100       -1.69600
N          1.70000       13.80600       -3.53700
C          2.02000       13.09000       -4.76700
H          1.21000       13.15100       -5.49200
H          2.23700       12.04700       -4.53000
C          3.27200       13.75600       -5.33400
H          2.98800       14.59500       -5.97200
H          3.89500       13.04800       -5.88200
C          3.96600       14.27000       -4.07500
H          4.67600       15.06900       -4.29000
H          4.47900       13.44100       -3.58500
C          2.78800       14.72600       -3.20200
H          3.06300       14.59800       -2.15600
C          2.39800       16.20400       -3.41000
O          2.89600       16.87700       -4.30900
N          1.53000       16.74400       -2.54700
H          1.08500       16.11900       -1.88200
C          1.12200       18.16200       -2.56500
H          0.68800       18.38700       -3.54000
C          0.05200       18.40300       -1.48900
H          0.46500       18.14200       -0.51300
H         -0.18200       19.46800       -1.46400
C         -1.24900       17.65200       -1.70200
C         -1.55900       16.52100       -0.92200
H         -0.86500       16.17000       -0.17200
C         -2.77300       15.83900       -1.11900
H         -3.00800       14.97400       -0.51600
C         -3.67800       16.28100       -2.10000
H         -4.61100       15.75700       -2.25300
C         -3.37000       17.40900       -2.88100
H         -4.06500       17.75000       -3.63600
C         -2.16000       18.09600       -2.67900
H         -1.93000       18.96700       -3.27700
C          2.28800       19.15300       -2.36500
O          2.15600       20.33000       -2.68300
N          3.42900       18.68100       -1.85700
H          3.46300       17.69900       -1.63600
C          4.68800       19.42600       -1.74800
H          4.46800       20.44500       -1.42600
C          5.54200       18.75100       -0.66000
H          6.52300       19.22700       -0.62400
H          5.06800       18.93200        0.30600
C          5.72300       17.25200       -0.84000
C          4.92200       16.35100       -0.11000
H          4.19700       16.72300        0.60000
C          5.07000       14.96400       -0.29200
H          4.46000       14.27400        0.27500
C          6.01800       14.47300       -1.20700
H          6.13500       13.40700       -1.34400
C          6.81700       15.36900       -1.93900
H          7.54800       14.99200       -2.64000
C          6.67200       16.75500       -1.75400
H          7.29200       17.44100       -2.31600
C          5.46300       19.55000       -3.07900
O          6.51700       20.17400       -3.12400
N          5.00500       18.95500       -4.17400
H          5.52500       19.06200       -5.02800
H          4.15000       18.41400       -4.14900
