84
0 1
H          5.64900       14.66900        3.51800
C          6.50900       14.54500        2.86200
H          7.11100       13.70000        3.19100
H          7.11400       15.45100        2.88100
C          6.03200       14.30400        1.45000
O          6.32800       15.08600        0.55600
N          5.27900       13.22500        1.24600
H          5.04700       12.64500        2.03400
C          4.67700       12.91100       -0.05300
H          5.47100       12.93600       -0.79800
C          4.12300       11.48200       -0.01200
H          4.94200       10.79200        0.19700
H          3.40700       11.40200        0.80700
C          3.45200       11.05600       -1.30000
C          4.23300       10.74900       -2.43200
H          5.31200       10.79600       -2.37800
C          3.60800       10.38600       -3.64100
H          4.19200       10.15700       -4.51900
C          2.20200       10.31400       -3.71300
O          1.59900        9.99100       -4.88400
H          0.69800       10.32400       -4.91800
C          1.42500       10.59300       -2.56900
H          0.35200       10.50000       -2.61600
C          2.04800       10.97600       -1.36800
H          1.44900       11.19700       -0.49500
C          3.59000       13.95200       -0.41800
O          2.63700       14.10800        0.34700
N          3.69000       14.66800       -1.55800
C          4.63100       14.41600       -2.64000
H          4.57000       13.38600       -2.99100
H          5.64300       14.64400       -2.30300
C          4.23900       15.37300       -3.76000
H          3.41800       14.94800       -4.34100
H          5.08600       15.61400       -4.40300
C          3.74900       16.58900       -2.98100
H          3.09300       17.21500       -3.58700
H          4.60800       17.17000       -2.64100
C          3.04100       15.97400       -1.76500
H          3.25600       16.60300       -0.90200
C          1.50900       15.97700       -1.92800
O          0.92800       17.03500       -2.15900
N          0.81900       14.84000       -1.79000
H          1.32400       14.00900       -1.52100
C         -0.65200       14.77700       -1.86800
H         -0.97300       15.32800       -2.75300
C         -1.11400       13.31800       -2.04100
H         -0.56700       12.68600       -1.34000
H         -2.16600       13.26400       -1.75600
C         -1.01400       12.70900       -3.43800
C         -1.84600       11.61500       -3.75300
H         -2.53700       11.23400       -3.01400
C         -1.79400       11.01600       -5.02500
H         -2.44600       10.18500       -5.25800
C         -0.91600       11.51400       -6.00100
H         -0.88600       11.06600       -6.98500
C         -0.08100       12.60200       -5.69700
H          0.59500       12.98900       -6.44800
C         -0.12700       13.19700       -4.42300
H          0.52000       14.03600       -4.22200
C         -1.37000       15.47100       -0.68700
O         -2.59200       15.57200       -0.70200
N         -0.64100       16.00000        0.30600
H          0.36000       15.88000        0.28100
C         -1.19300       16.94300        1.29100
H         -2.13800       16.54100        1.66100
C         -0.23000       17.06100        2.48600
H         -0.69500       17.69400        3.24300
H         -0.10900       16.07200        2.93200
C          1.14300       17.63100        2.16300
C          2.25100       16.77300        2.03300
H          2.13000       15.71000        2.18300
C          3.51800       17.29300        1.71300
H          4.36400       16.63100        1.60300
C          3.68400       18.67600        1.52900
H          4.65800       19.07400        1.28000
C          2.58600       19.54000        1.67900
H          2.71300       20.60500        1.54700
C          1.32000       19.01900        2.00200
H          0.48000       19.69100        2.12100
C         -1.51400       18.33400        0.69900
O         -2.15400       19.14900        1.35300
N         -1.07200       18.65600       -0.51200
H         -0.50800       18.00700       -1.04300
H         -1.29900       19.56600       -0.87500
