84
0 1
H          4.79700        6.70200      -10.42400
C          4.95600        7.04000       -9.40100
H          5.65600        7.87300       -9.39700
H          5.34500        6.22000       -8.80100
C          3.63600        7.49900       -8.82800
O          2.61700        7.44700       -9.50600
N          3.65300        7.94600       -7.57500
H          4.54300        8.03100       -7.11300
C          2.50100        8.59400       -6.94100
H          1.60200        8.09500       -7.30100
C          2.56700        8.39300       -5.41600
H          1.60700        8.68600       -4.99000
H          2.68800        7.32900       -5.20700
C          3.66400        9.16400       -4.70000
C          3.38300       10.42400       -4.13500
H          2.38800       10.84200       -4.21000
C          4.39100       11.14600       -3.47000
H          4.16600       12.11000       -3.04200
C          5.69000       10.60500       -3.36400
O          6.67300       11.29200       -2.72700
H          6.35300       12.11200       -2.33800
C          5.97100        9.34000       -3.92100
H          6.96600        8.93300       -3.82700
C          4.95800        8.61800       -4.58300
H          5.17400        7.64100       -4.99200
C          2.42200       10.09000       -7.32600
O          3.44200       10.67100       -7.70800
N          1.25100       10.75200       -7.20000
C         -0.06300       10.16800       -6.98200
H         -0.23800       10.04900       -5.91200
H         -0.18000        9.21400       -7.49700
C         -1.04700       11.18200       -7.56000
H         -2.02900       11.10600       -7.09300
H         -1.12100       11.04900       -8.64100
C         -0.36900       12.51500       -7.24900
H         -0.61100       12.80100       -6.22400
H         -0.68300       13.29700       -7.94100
C          1.12800       12.19900       -7.39600
H          1.43800       12.43800       -8.41400
C          2.00600       12.97400       -6.39900
O          1.68600       13.07300       -5.21400
N          3.15100       13.47500       -6.86600
H          3.39600       13.28700       -7.82500
C          4.17100       14.05500       -5.99400
H          4.32500       13.35700       -5.17200
C          5.50200       14.16900       -6.74800
H          5.74100       13.20200       -7.19400
H          5.39700       14.89300       -7.55700
C          6.64900       14.58000       -5.84600
C          7.01900       15.93300       -5.73500
H          6.52000       16.68200       -6.33200
C          8.02700       16.31700       -4.83200
H          8.29900       17.35900       -4.73600
C          8.67700       15.34700       -4.05000
H          9.45200       15.64300       -3.35700
C          8.31900       13.99300       -4.16900
H          8.81900       13.24400       -3.57000
C          7.30500       13.61000       -5.06500
H          7.02900       12.56900       -5.15100
C          3.74100       15.40000       -5.38300
O          3.17400       16.25700       -6.06000
N          4.07200       15.60500       -4.10600
H          4.58600       14.87800       -3.63400
C          3.79600       16.81900       -3.32700
H          2.79300       17.16000       -3.58800
C          3.76800       16.45700       -1.82600
H          3.89800       17.35700       -1.22400
H          2.76500       16.09100       -1.60600
C          4.76200       15.39900       -1.36400
C          4.30100       14.12700       -0.96600
H          3.24300       13.90500       -0.98500
C          5.20800       13.14900       -0.52100
H          4.84500       12.18200       -0.19500
C          6.58400       13.43400       -0.47800
H          7.28300       12.68800       -0.12300
C          7.05000       14.69400       -0.88800
H          8.10700       14.91700       -0.85500
C          6.14300       15.67500       -1.32700
H          6.51100       16.64600       -1.62400
C          4.73200       17.99600       -3.68900
O          5.44500       18.54900       -2.86000
N          4.76000       18.40000       -4.95100
H          5.35700       19.17000       -5.19900
H          4.17300       17.93300       -5.63100
