84
0 1
H          5.63400       20.08300      -13.24900
C          6.65300       19.72400      -13.37700
H          7.35200       20.55600      -13.32500
H          6.74600       19.22800      -14.34300
C          6.97300       18.73000      -12.28600
O          7.27300       17.57800      -12.57000
N          6.91100       19.17800      -11.03400
H          6.62200       20.12900      -10.87900
C          7.10200       18.31700       -9.86300
H          8.02500       17.75700       -9.99800
C          7.28000       19.19400       -8.61300
H          8.21000       19.75600       -8.70700
H          6.46300       19.91700       -8.57500
C          7.31000       18.42800       -7.30100
C          6.25500       18.56900       -6.37600
H          5.42800       19.22900       -6.59600
C          6.26700       17.84200       -5.16800
H          5.46200       17.94400       -4.45700
C          7.33200       16.95800       -4.89000
O          7.33900       16.23400       -3.74000
H          6.47100       16.24800       -3.30200
C          8.39400       16.82900       -5.80900
H          9.20300       16.15400       -5.58000
C          8.38400       17.56400       -7.01100
H          9.20000       17.45700       -7.71200
C          5.92300       17.33400       -9.68600
O          4.77800       17.78700       -9.59000
N          6.16400       16.00900       -9.58600
C          7.38900       15.30900       -9.93800
H          8.06000       15.29500       -9.07800
H          7.88200       15.75600      -10.80200
C          6.94400       13.89000      -10.27900
H          7.75000       13.16900      -10.14200
H          6.56400       13.86000      -11.30100
C          5.80000       13.66100       -9.29300
H          6.22100       13.34000       -8.34000
H          5.09300       12.91800       -9.66300
C          5.14700       15.04700       -9.16500
H          4.29800       15.10800       -9.84700
C          4.69600       15.36600       -7.73400
O          5.46100       15.19900       -6.78900
N          3.46600       15.86300       -7.58800
H          2.90900       15.93500       -8.42600
C          2.96300       16.62600       -6.43400
H          3.75300       17.31900       -6.15000
C          1.78100       17.49500       -6.90700
H          1.30000       17.96900       -6.05100
H          2.18900       18.30300       -7.51600
C          0.73500       16.76600       -7.73500
C          0.78900       16.82400       -9.14300
H          1.56000       17.40500       -9.63200
C         -0.15900       16.13100       -9.91600
H         -0.11600       16.17900      -10.99500
C         -1.16500       15.37800       -9.28600
H         -1.89600       14.84700       -9.87900
C         -1.22500       15.32100       -7.88200
H         -1.99900       14.74500       -7.39600
C         -0.27700       16.01400       -7.10800
H         -0.32600       15.96700       -6.02900
C          2.68500       15.81700       -5.14400
O          1.70000       16.04400       -4.44200
N          3.57000       14.88400       -4.79600
H          4.38000       14.76700       -5.39500
C          3.59000       14.22000       -3.49400
H          2.58400       13.86000       -3.27600
C          4.54000       13.01500       -3.54600
H          5.56200       13.38000       -3.66100
H          4.48900       12.48600       -2.59300
C          4.24100       12.02700       -4.66100
C          3.12800       11.17000       -4.56600
H          2.48700       11.21000       -3.69800
C          2.84600       10.26100       -5.60200
H          1.99000        9.60500       -5.52800
C          3.67800       10.20500       -6.73400
H          3.46300        9.50400       -7.52900
C          4.79000       11.05800       -6.83100
H          5.43200       11.01100       -7.69900
C          5.07000       11.97100       -5.79800
H          5.92300       12.63200       -5.87900
C          4.00700       15.19700       -2.38000
O          4.88600       16.03700       -2.55800
N          3.41900       15.07900       -1.19700
H          2.69100       14.40000       -1.05700
H          3.69200       15.71700       -0.46800
