88
0 1
H          2.05700       19.00500       -4.59700
C          2.45400       18.00500       -4.76400
H          1.64000       17.28200       -4.74100
H          3.18500       17.76800       -3.99400
C          3.12000       17.96400       -6.11900
O          3.14100       18.96100       -6.82700
N          3.67200       16.80700       -6.47800
H          3.61700       16.03200       -5.83700
C          4.33200       16.58300       -7.76700
H          5.06700       17.37200       -7.91200
C          5.07800       15.24300       -7.70800
H          4.34200       14.45200       -7.56800
H          5.56500       15.06800       -8.66500
C          6.12200       15.12600       -6.61000
C          7.13600       16.09800       -6.48300
H          7.17800       16.93700       -7.16200
C          8.10100       15.98200       -5.46400
H          8.88000       16.72200       -5.35600
C          8.05900       14.89300       -4.57000
O          8.99500       14.78900       -3.59100
H          8.88000       14.00000       -3.06200
C          7.04700       13.91700       -4.69800
H          7.01400       13.08000       -4.01700
C          6.08200       14.03500       -5.71700
H          5.31200       13.28200       -5.81400
C          3.31000       16.61100       -8.92800
O          2.48900       15.69600       -9.02900
N          3.33200       17.62200       -9.82100
C          4.34900       18.65700       -9.94700
H          5.34800       18.22800      -10.03000
H          4.29700       19.33100       -9.09100
C          3.99900       19.42500      -11.22000
H          4.43400       18.92400      -12.08600
H          4.32800       20.46300      -11.16900
C          2.47600       19.31000      -11.26300
H          2.08800       19.44900      -12.27300
H          2.03900       20.04600      -10.58700
C          2.20800       17.90000      -10.72200
H          1.27600       17.91000      -10.15400
C          2.04900       16.88800      -11.86500
O          0.95900       16.75000      -12.41500
N          3.11400       16.17000      -12.23200
H          3.98500       16.33300      -11.75100
C          3.14200       15.28800      -13.40900
H          2.76300       15.85400      -14.26000
C          4.59600       14.89900      -13.71400
H          4.89700       14.11000      -13.02300
H          4.64700       14.48700      -14.72300
C          5.58400       16.02200      -13.59200
C          5.79700       16.98800      -14.51300
H          5.30400       17.03900      -15.47800
N          6.70600       17.90600      -14.02200
H          7.02400       18.70800      -14.54700
C          7.11600       17.58200      -12.74600
C          7.99100       18.19100      -11.83500
H          8.49600       19.11000      -12.09400
C          8.22000       17.57600      -10.59200
H          8.90900       18.02000       -9.88600
C          7.57200       16.36800      -10.27800
H          7.78000       15.88000       -9.33600
C          6.67800       15.77600      -11.19300
H          6.20100       14.83700      -10.95100
C          6.42700       16.36800      -12.44900
C          2.24700       14.04300      -13.29200
O          1.99800       13.37900      -14.29300
N          1.75000       13.73700      -12.08900
H          2.00300       14.32700      -11.31000
C          0.79400       12.65400      -11.83500
H          0.92100       11.89100      -12.60500
C          1.12400       12.00700      -10.48100
H          0.86800       12.71100       -9.68700
H          0.49900       11.12300      -10.35100
C          2.57900       11.59300      -10.33500
C          3.42400       12.27400       -9.43800
H          3.02500       13.07800       -8.83600
C          4.77900       11.91300       -9.32800
H          5.42700       12.43100       -8.63600
C          5.29400       10.87000      -10.11800
H          6.33500       10.59100      -10.03500
C          4.45300       10.18700      -11.01500
H          4.84800        9.38700      -11.62400
C          3.09800       10.54800      -11.12200
H          2.45600       10.02600      -11.81800
C         -0.68100       13.10100      -11.91500
O         -1.58500       12.29800      -11.71800
N         -0.96700       14.37000      -12.18500
H         -0.22900       15.04200      -12.34700
H         -1.93500       14.64000      -12.23600
