99
0 1
H         22.50700       28.27400        1.89000
C         22.58000       27.64300        2.77400
H         22.61700       28.26400        3.66600
H         23.47400       27.02600        2.71200
C         21.36500       26.75000        2.84000
O         20.50100       26.81700        1.97600
N         21.29900       25.91700        3.87300
H         22.04700       25.92400        4.54900
C         20.21400       24.95900        4.10200
H         19.28600       25.36700        3.69700
C         20.54000       23.65000        3.35100
H         20.72300       23.89000        2.30200
H         21.45900       23.22700        3.76200
C         19.44800       22.57600        3.40200
O         18.43400       22.71800        4.12700
O         19.55300       21.57800        2.66900
C         20.02800       24.72400        5.60900
O         20.99700       24.47800        6.32500
N         18.78200       24.75400        6.09200
H         18.03000       24.96200        5.45500
C         18.42600       24.44100        7.47900
H         18.94100       25.14200        8.13800
C         16.91100       24.61400        7.66100
H         16.39100       23.85200        7.08400
H         16.69300       24.41200        8.71100
S         16.19300       26.24000        7.27700
C         18.83200       23.01400        7.90600
O         18.93600       22.74500        9.10000
N         19.06100       22.09900        6.95100
H         18.91200       22.38600        5.98600
C         19.59700       20.74600        7.19600
H         19.13400       20.34600        8.10000
C         19.23600       19.82600        6.01500
H         19.63800       20.25000        5.09500
H         19.70100       18.85100        6.17100
C         17.71800       19.61900        5.88700
H         17.34600       19.19800        6.82200
H         17.22000       20.57600        5.73200
C         17.34200       18.65900        4.74600
H         17.83600       17.70100        4.91500
H         16.26600       18.48600        4.78100
C         17.71600       19.16300        3.34400
H         18.80200       19.28000        3.27000
H         17.40100       18.41700        2.61100
N         17.07200       20.45700        3.03800
H         17.19900       20.71100        2.06200
H         16.07600       20.43500        3.23200
H         17.54500       21.20500        3.54800
C         21.11100       20.71100        7.46900
O         21.65000       19.65700        7.77700
N         21.82700       21.82000        7.35500
H         21.38600       22.69200        7.09600
H         22.81200       21.77100        7.54600
H         17.15100       21.83500       -2.31500
C         16.23400       21.80000       -1.72900
H         15.89700       20.76800       -1.64200
H         15.46400       22.39800       -2.21200
C         16.50400       22.35100       -0.35000
O         16.33700       21.64200        0.63900
N         16.91100       23.61700       -0.28300
H         17.01100       24.13800       -1.13800
C         17.20600       24.31200        0.97000
H         18.00400       23.77100        1.47800
C         17.71800       25.71800        0.64500
H         18.63600       25.65600        0.05800
H         16.96400       26.27500        0.08700
H         17.93400       26.25200        1.57200
C         15.98100       24.36700        1.90400
O         14.87500       24.69000        1.47300
N         16.18300       24.03500        3.18200
H         17.12000       23.72900        3.42900
C         15.20200       23.99000        4.27700
H         15.73600       23.57600        5.12900
C         14.79800       25.41800        4.66600
H         14.34500       25.90100        3.79900
H         14.04700       25.37600        5.45600
S         16.18300       26.44100        5.24000
C         13.99300       23.04700        4.10000
O         13.35500       22.70300        5.09100
N         13.71100       22.56100        2.88900
H         14.21300       22.95200        2.10300
C         12.73500       21.50200        2.62700
H         11.79000       21.79800        3.08600
C         12.53600       21.40100        1.10100
H         12.24100       22.38300        0.72600
H         13.49100       21.14400        0.63900
C         11.48800       20.37800        0.63600
H         11.40800       20.42700       -0.45000
H         11.81500       19.37200        0.89600
C         10.11400       20.62400        1.25100
O          9.81600       20.17900        2.34500
N          9.23700       21.35400        0.60000
H          9.45100       21.75000       -0.29600
H          8.35300       21.49000        1.06100
C         13.17300       20.16900        3.26600
O         14.36200       19.85700        3.33600
N         12.23500       19.35000        3.72000
H         12.51000       18.48600        4.15400
H         11.25800       19.60100        3.61900
