99
0 1
H         12.55600       18.43800       -4.48400
C         12.05100       18.05600       -3.59800
H         11.84000       16.99500       -3.72100
H         11.12100       18.60000       -3.44100
C         12.94300       18.24700       -2.39700
O         12.56600       18.92800       -1.44800
N         14.12700       17.64400       -2.43600
H         14.37500       17.10300       -3.25200
C         15.13900       17.72400       -1.37900
H         15.13000       18.73700       -0.97700
C         14.77100       16.74000       -0.24900
H         13.69300       16.77400       -0.08500
H         15.02400       15.72600       -0.56100
C         15.44500       17.04400        1.09100
O         16.38300       17.87700        1.15600
O         15.00200       16.50800        2.12700
C         16.54600       17.44300       -1.94400
O         16.69900       16.70700       -2.91600
N         17.57900       18.00900       -1.31900
H         17.36900       18.52300       -0.47200
C         18.99000       17.76100       -1.63200
H         19.11500       17.71500       -2.71500
C         19.83300       18.92400       -1.08500
H         19.63100       19.05000       -0.02200
H         20.88300       18.63900       -1.18100
S         19.66800       20.53000       -1.91300
C         19.51700       16.43300       -1.04800
O         20.67500       16.08100       -1.26800
N         18.71300       15.72700       -0.24200
H         17.76100       16.05200       -0.13100
C         19.11000       14.53300        0.52100
H         19.82000       13.97200       -0.08900
C         19.84400       14.95800        1.81400
H         20.07200       14.07200        2.40900
H         20.80300       15.38000        1.50900
C         19.16400       16.01000        2.71600
H         19.92600       16.38700        3.40000
H         18.82600       16.85600        2.11700
C         18.00000       15.47900        3.56800
H         17.17200       15.16100        2.93600
H         18.35000       14.61900        4.14000
C         17.51000       16.55000        4.55200
H         16.92300       16.06600        5.33600
H         18.37400       17.02900        5.02200
N         16.67100       17.57200        3.89000
H         16.49700       18.37000        4.49400
H         17.06200       17.88200        3.00500
H         15.79100       17.16500        3.56300
C         17.92700       13.59500        0.76500
O         16.77600       13.99500        0.68500
N         18.19200       12.33700        1.07600
H         19.14400       12.01700        1.12300
H         17.41300       11.71600        1.22100
H         12.93000       17.75200        3.69600
C         12.52100       18.21200        2.79900
H         11.49300       18.52100        2.97400
H         12.54800       17.48700        1.98700
C         13.34700       19.42200        2.43700
O         14.09700       19.92600        3.27000
N         13.19300       19.89700        1.20000
H         12.63700       19.35200        0.54900
C         13.59100       21.22900        0.73000
H         13.54700       21.19300       -0.35900
C         12.52700       22.24400        1.18000
H         12.52700       22.32900        2.26700
H         12.73900       23.22100        0.74400
H         11.54100       21.91900        0.84500
C         15.04100       21.65000        1.06000
O         15.30000       22.81800        1.35400
N         15.98700       20.70300        1.04800
H         15.69600       19.74500        0.88900
C         17.40400       20.89500        1.38800
H         17.88100       19.92200        1.28700
C         18.06900       21.81500        0.35000
H         17.65300       22.81800        0.44900
H         19.13600       21.88300        0.56400
S         17.85100       21.27200       -1.36800
C         17.67000       21.31900        2.84900
O         18.80700       21.62500        3.20000
N         16.65300       21.30900        3.71800
H         15.74200       21.00300        3.39100
C         16.75900       21.74500        5.11400
H         17.37700       22.64400        5.14300
C         15.36500       22.10000        5.66300
H         14.75200       21.19900        5.70800
H         15.47800       22.48200        6.67900
C         14.62600       23.15700        4.82400
H         14.34200       22.72600        3.86600
H         13.70900       23.44400        5.33900
C         15.46600       24.41000        4.59800
O         15.91900       25.05500        5.52700
N         15.74000       24.78400        3.36900
H         15.46400       24.20400        2.58100
H         16.31200       25.60100        3.26500
C         17.44300       20.69500        6.00100
O         17.29800       19.49000        5.79900
N         18.16600       21.13000        7.02400
H         18.61500       20.45500        7.61900
H         18.27500       22.12000        7.17800
