125
2 1
H          1.34800       50.35700       24.11100
C          2.24800       50.31100       23.50000
H          2.75100       49.35900       23.67100
H          2.91800       51.12400       23.77500
C          1.88100       50.42900       22.04000
O          2.15900       49.51600       21.26700
N          1.24100       51.54800       21.67800
H          1.06900       52.20600       22.42600
C          0.82400       51.98300       20.31900
H         -0.02400       52.64800       20.49500
C          1.87400       52.90600       19.65000
H          1.45600       53.28900       18.71800
H          1.98900       53.77200       20.30400
C          3.29800       52.38900       19.36100
H          3.89300       53.25300       19.06000
H          3.74500       51.99600       20.27600
C          3.41300       51.35200       18.23500
H          2.74200       51.62900       17.41900
H          4.44000       51.35700       17.86300
N          3.10000       50.00800       18.73300
H          2.98100       49.92100       19.73400
C          2.82000       48.91700       18.05700
N          2.45100       47.86500       18.72600
H          2.27100       46.97300       18.28100
H          2.31900       47.96500       19.72300
N          2.90300       48.86400       16.75900
H          3.13900       49.70300       16.26400
H          2.63500       48.03400       16.25800
C          0.16400       50.93100       19.40400
O          0.24800       51.01800       18.18200
N         -0.50700       49.94400       19.99300
H         -0.52400       49.93400       20.99800
C         -1.50600       49.13600       19.29200
H         -1.10000       48.83100       18.32700
C         -1.80100       47.86800       20.10000
H         -1.86200       48.09600       21.16400
H         -2.77200       47.48000       19.79200
S         -0.56500       46.57600       19.80800
C         -2.77600       49.95600       19.00600
O         -3.09400       50.88400       19.74800
N         -3.48500       49.62600       17.92300
H         -3.22400       48.78500       17.41600
C         -4.64000       50.37900       17.41200
H         -5.24900       50.66300       18.27000
C         -4.16300       51.67900       16.70700
H         -3.59700       52.26200       17.43600
C         -3.21500       51.40200       15.52300
H         -2.86400       52.34600       15.10500
H         -2.34400       50.84000       15.86000
H         -3.73100       50.84200       14.74300
C         -5.31400       52.57800       16.20600
H         -4.88300       53.44900       15.70900
H         -5.91800       52.04600       15.47100
C         -6.22100       53.09600       17.33000
H         -6.94500       53.79700       16.91300
H         -6.76200       52.27400       17.79700
H         -5.62300       53.61200       18.08200
C         -5.50400       49.49500       16.49700
O         -4.99600       48.69500       15.71700
N         -6.82200       49.62500       16.56300
H         -7.39100       49.04900       15.96300
H         -7.23800       50.28700       17.19800
H          1.77100       43.37500       20.66800
C          2.56100       43.80000       20.05000
H          3.42300       43.13400       20.04800
H          2.85600       44.76600       20.46000
C          2.05900       43.98600       18.63900
O          2.01300       45.10900       18.14300
N          1.65600       42.88700       17.98900
H          1.74100       42.00700       18.47900
C          1.15300       42.86400       16.59500
H          1.79400       43.53200       16.02000
C          1.29300       41.43700       16.01000
H          2.03700       40.89700       16.59900
H          0.35300       40.89300       16.12500
C          1.77500       41.37500       14.54100
H          2.17300       42.33900       14.22200
H          2.60700       40.67000       14.51100
C          0.74600       40.87800       13.50900
H          1.30400       40.50700       12.64700
H          0.17900       40.04400       13.93000
N         -0.17400       41.94100       13.05900
H         -0.35800       42.69100       13.71700
C         -0.84200       42.00300       11.92100
N         -0.80800       41.03900       11.04300
H         -1.32600       41.11000       10.18700
H         -0.27200       40.21600       11.24600
N         -1.56700       43.04400       11.63400
H         -2.07900       43.09400       10.77700
H         -1.56800       43.85800       12.24900
C         -0.27000       43.42500       16.42600
O         -0.79400       43.40500       15.31700
N         -0.89300       43.92600       17.49200
H         -0.37500       43.94400       18.35600
C         -2.24100       44.50800       17.53500
H         -2.90800       43.83600       16.99300
C         -2.72800       44.52600       19.00000
H         -3.54300       45.24500       19.09800
H         -3.16000       43.54700       19.21200
S         -1.50900       44.84700       20.31900
C         -2.37000       45.87500       16.81400
O         -2.80900       46.86600       17.38900
N         -1.95900       45.94200       15.54800
H         -1.61500       45.09100       15.11700
C         -2.05300       47.11700       14.67900
H         -2.98700       47.63400       14.89500
C         -0.89400       48.08800       14.96900
H         -1.08300       49.01400       14.42600
H         -0.90200       48.34500       16.02800
C          0.49400       47.58400       14.60500
C          1.14900       46.64900       15.42900
H          0.65700       46.28500       16.31900
C          2.44400       46.20100       15.10500
H          2.95300       45.48700       15.73800
C          3.08700       46.68800       13.95500
H          4.08200       46.34500       13.70100
C          2.43700       47.62300       13.13100
H          2.93200       47.99600       12.24400
C          1.14400       48.06900       13.45500
H          0.65300       48.79000       12.81400
C         -2.09400       46.69300       13.20200
O         -1.71500       45.57500       12.84500
N         -2.55300       47.57100       12.32000
H         -2.59200       47.31100       11.34800
H         -2.88900       48.47000       12.62900
