125
2 1
H         -1.59800       47.83500       11.92900
C         -1.20100       47.95500       12.93600
H         -0.28400       48.53800       12.88500
H         -0.99300       46.97600       13.36600
C         -2.20500       48.67500       13.80700
O         -1.83200       49.53800       14.60100
N         -3.48500       48.33400       13.63900
H         -3.68000       47.58100       12.99800
C         -4.60200       48.88700       14.42500
H         -4.39600       49.94400       14.59400
C         -5.93100       48.79900       13.64900
H         -6.71100       49.23300       14.27700
H         -5.86200       49.41500       12.75100
C         -6.33600       47.36800       13.23600
H         -5.81700       47.11100       12.31200
H         -6.03900       46.64700       13.99800
C         -7.84800       47.22900       13.01500
H         -8.19500       48.03300       12.36200
H         -8.03400       46.27200       12.52300
N         -8.57700       47.26300       14.29800
H         -8.04400       47.48000       15.13300
C         -9.84600       46.98500       14.52000
N        -10.28700       47.01600       15.73800
H        -11.21500       46.72600       15.98800
H         -9.63800       47.20900       16.49300
N        -10.68000       46.67000       13.56900
H        -10.35200       46.64200       12.62200
H        -11.63800       46.47100       13.78800
C         -4.73800       48.24000       15.80700
O         -4.43500       47.06500       15.98600
N         -5.28200       48.98300       16.76400
H         -5.46700       49.95900       16.56000
C         -5.70600       48.45400       18.06100
H         -4.88700       47.87200       18.48500
C         -5.99800       49.62800       19.00000
H         -6.84600       50.18800       18.60300
H         -6.27800       49.24500       19.98300
S         -4.61900       50.78300       19.21600
C         -6.92400       47.51700       17.93900
O         -7.74900       47.65900       17.02900
N         -7.06200       46.57500       18.87900
H         -6.34000       46.48000       19.57700
C         -8.18500       45.62300       18.92300
H         -8.28500       45.19400       17.92400
C         -7.85100       44.44400       19.87200
H         -6.91000       44.03200       19.49900
C         -7.57900       44.86100       21.33100
H         -7.29100       43.98000       21.90800
H         -6.76000       45.57700       21.38400
H         -8.46700       45.29200       21.79100
C         -8.86500       43.27700       19.78400
H         -9.13300       43.12300       18.73700
H         -8.35400       42.37200       20.11500
C        -10.15800       43.38500       20.60700
H         -9.93000       43.43200       21.67200
H        -10.73800       44.25800       20.31900
H        -10.76600       42.49700       20.42900
C         -9.52200       46.32500       19.21500
O        -10.47100       46.17800       18.45400
N         -9.60200       47.17700       20.22900
H         -8.82000       47.29900       20.85000
H        -10.48200       47.63700       20.39900
H         -6.05300       54.69100       16.29400
C         -6.04800       53.78500       16.89700
H         -7.01100       53.28500       16.80900
H         -5.86400       54.03800       17.94000
C         -4.95900       52.85900       16.40800
O         -5.24300       51.72900       16.02100
N         -3.71200       53.33600       16.43000
H         -3.58400       54.26100       16.81400
C         -2.50100       52.55500       16.12200
H         -2.75000       51.78600       15.38900
C         -1.44400       53.49400       15.50700
H         -1.82000       53.87100       14.55500
H         -1.29500       54.34300       16.17700
C         -0.08400       52.81300       15.27600
H          0.30600       52.46200       16.23200
H         -0.20700       51.95700       14.61000
C          0.93900       53.78400       14.67600
H          0.68300       53.97600       13.63200
H          0.90100       54.72500       15.23200
N          2.29800       53.22500       14.77700
H          2.39700       52.33400       15.25200
C          3.43800       53.77800       14.41700
N          3.50500       54.92800       13.80600
H          4.39200       55.32200       13.55300
H          2.65300       55.41700       13.60000
N          4.54400       53.15200       14.68800
H          5.43700       53.53800       14.44700
H          4.47400       52.28000       15.20200
C         -1.97200       51.85600       17.38100
O         -1.69200       52.52000       18.37100
N         -1.72400       50.55100       17.29000
H         -1.92700       50.09900       16.40600
C         -1.11200       49.72800       18.34100
H         -0.66400       50.37600       19.09600
C         -2.18300       48.87500       19.04400
H         -2.80100       48.38400       18.29400
H         -1.66600       48.08800       19.59500
S         -3.22600       49.72900       20.26400
C          0.03600       48.88200       17.75600
O          0.01700       47.65600       17.81600
N          1.02300       49.53700       17.13100
H          1.00100       50.54300       17.12600
C          2.13200       48.86300       16.44400
H          2.38100       47.95200       16.99300
C          1.67000       48.45500       15.03800
H          0.79800       47.80500       15.12900
H          1.36000       49.34900       14.49500
C          2.72300       47.72100       14.23200
C          3.43900       48.38800       13.21900
H          3.22700       49.42200       12.99100
C          4.43300       47.70600       12.49400
H          4.98100       48.21300       11.71100
C          4.71300       46.35900       12.78100
H          5.47500       45.83300       12.22100
C          3.99800       45.69200       13.79000
H          4.21100       44.65300       14.00500
C          3.00300       46.37100       14.51500
H          2.45300       45.85100       15.28700
C          3.40100       49.72700       16.37100
O          3.34400       50.92300       16.07600
N          4.56800       49.13400       16.58800
H          4.60400       48.14600       16.78600
H          5.41500       49.67600       16.54300
