125
2 1
H          3.91800       41.99800       11.50300
C          2.95200       41.51800       11.65200
H          3.03400       40.45600       11.42300
H          2.21500       41.97100       10.98900
C          2.51300       41.69200       13.08600
O          2.33000       40.70800       13.80000
N          2.35500       42.94500       13.52100
H          2.48000       43.68100       12.83600
C          1.81400       43.36100       14.83300
H          1.43900       42.49500       15.37600
C          2.89600       44.07900       15.67400
H          3.18200       44.98700       15.14000
H          2.44800       44.39900       16.61700
C          4.19600       43.31500       16.00200
H          4.66700       42.97200       15.08000
H          4.87900       44.03000       16.46400
C          4.04600       42.13500       16.97700
H          5.04000       41.87900       17.35000
H          3.42400       42.43700       17.82300
N          3.46600       40.96000       16.31100
H          3.07300       41.11400       15.39000
C          3.45800       39.69900       16.69200
N          2.93900       38.81700       15.89100
H          2.58300       39.14200       14.99500
H          2.92000       37.84200       16.12200
N          3.94900       39.30100       17.83200
H          4.35900       39.97900       18.44800
H          3.93500       38.32900       18.08100
C          0.62500       44.30900       14.61900
O          0.54900       44.97400       13.59100
N         -0.27800       44.40700       15.59500
H         -0.14100       43.87900       16.44000
C         -1.31100       45.44600       15.58800
H         -1.81700       45.44000       14.62100
C         -2.34500       45.15300       16.68200
H         -2.74100       44.14500       16.55000
H         -1.83800       45.19400       17.64800
S         -3.74600       46.30700       16.74300
C         -0.67900       46.83000       15.81200
O          0.06700       47.00800       16.77300
N         -1.00500       47.81400       14.96900
H         -1.58100       47.60100       14.17100
C         -0.67000       49.22100       15.23200
H          0.38600       49.28700       15.49700
C         -0.91600       50.09700       13.98000
H         -1.97900       50.05200       13.74100
C         -0.58200       51.57300       14.26200
H         -1.26600       51.98500       15.00500
H          0.44100       51.67500       14.62400
H         -0.69300       52.15900       13.34800
C         -0.15200       49.59700       12.73100
H         -0.52300       48.60900       12.45700
H         -0.38100       50.26200       11.89600
C          1.37500       49.51400       12.87200
H          1.79100       50.49300       13.10800
H          1.64700       48.80200       13.65100
H          1.80200       49.17300       11.92800
C         -1.49100       49.70600       16.43400
O         -2.71400       49.58600       16.43700
N         -0.84700       50.24300       17.46200
H          0.15900       50.29700       17.45100
H         -1.36200       50.48700       18.29700
H         -4.28900       49.26700       12.54100
C         -4.67100       48.76100       13.42800
H         -3.84700       48.32300       13.98600
H         -5.37300       47.98500       13.12800
C         -5.38300       49.76900       14.29800
O         -5.53600       50.92200       13.91500
N         -5.82200       49.33400       15.48200
H         -5.66700       48.36000       15.70000
C         -6.52900       50.17400       16.47000
H         -6.26700       51.20700       16.25900
C         -8.05700       50.00800       16.30400
H         -8.28400       48.96300       16.08500
H         -8.56300       50.24200       17.24100
C         -8.67400       50.89500       15.20200
H         -8.26400       50.60500       14.23400
H         -9.74700       50.70100       15.17600
C         -8.46200       52.41000       15.39500
H         -7.42100       52.65400       15.17700
H         -9.07400       52.93900       14.66100
N         -8.84400       52.85400       16.75500
H         -9.81100       52.74200       17.00600
C         -8.03100       53.25000       17.72200
N         -8.45200       53.37700       18.94500
H         -9.38900       53.13900       19.20300
H         -7.75600       53.57800       19.65500
N         -6.77600       53.52700       17.53500
H         -6.37100       53.54500       16.61500
H         -6.21700       53.79000       18.33600
C         -6.05600       49.99300       17.91700
O         -6.67200       50.52200       18.83800
N         -4.93100       49.31700       18.12300
H         -4.39700       49.04000       17.30900
C         -4.28300       49.11900       19.41900
H         -5.05900       48.92200       20.16100
C         -3.38700       47.86900       19.34400
H         -2.52300       48.07700       18.71100
H         -3.01200       47.66300       20.34700
S         -4.21300       46.37100       18.72800
C         -3.52400       50.38600       19.87900
O         -2.32300       50.34200       20.13300
N         -4.20800       51.53600       19.92300
H         -5.19600       51.49700       19.69500
C         -3.67900       52.82100       20.40100
H         -3.07500       52.63000       21.29100
C         -2.76400       53.46800       19.34300
H         -2.29600       54.34600       19.79100
H         -1.95200       52.77800       19.10800
C         -3.42800       53.89300       18.04300
C         -3.53500       52.98300       16.97400
H         -3.17000       51.97500       17.08900
C         -4.07300       53.39300       15.74200
H         -4.10800       52.70300       14.90900
C         -4.52200       54.71500       15.57500
H         -4.90900       55.03900       14.61700
C         -4.43500       55.62300       16.64500
H         -4.76000       56.64600       16.51100
C         -3.88500       55.21500       17.87400
H         -3.78900       55.93100       18.67900
C         -4.81100       53.78400       20.79900
O         -5.90100       53.76200       20.22300
N         -4.56800       54.67000       21.75600
H         -3.67300       54.69100       22.21700
H         -5.30000       55.31000       22.02200
