125
2 1
H         -2.72200       51.92300       12.86500
C         -2.83800       50.94600       12.39800
H         -3.08100       51.07200       11.34400
H         -3.64600       50.40300       12.88800
C         -1.55100       50.16700       12.53200
O         -1.52500       49.12800       13.18800
N         -0.47300       50.66400       11.91900
H         -0.59000       51.53300       11.41500
C          0.86900       50.04700       11.92500
H          0.73200       48.96900       11.82100
C          1.66200       50.54600       10.69000
H          0.96700       50.61700        9.85200
H          2.03700       51.55500       10.87000
C          2.80900       49.61400       10.23300
H          2.79400       48.68400       10.80400
H          2.62500       49.35200        9.19000
C          4.21700       50.23300       10.30500
H          4.89600       49.64000        9.69100
H          4.19000       51.24000        9.88300
N          4.71000       50.29400       11.69200
H          4.25900       50.97600       12.29300
C          5.43600       49.39900       12.33400
N          5.57200       49.46100       13.62300
H          5.05900       50.13400       14.18100
H          6.06500       48.72000       14.09600
N          6.00400       48.38800       11.74300
H          5.99500       48.32000       10.74500
H          6.40600       47.65900       12.32000
C          1.59100       50.26600       13.26800
O          2.63200       50.91200       13.32500
N          1.03000       49.74600       14.35900
H          0.13500       49.28500       14.25000
C          1.60600       49.87200       15.70200
H          1.80200       50.92700       15.90400
C          0.58800       49.37600       16.73800
H          0.18300       48.41800       16.41500
H          1.10000       49.22100       17.69000
S         -0.78200       50.52200       17.04200
C          2.95700       49.14100       15.82000
O          3.99200       49.78000       15.98600
N          2.96100       47.81300       15.67000
H          2.07900       47.35600       15.47300
C          4.15000       46.94900       15.77500
H          4.98900       47.52900       16.16400
C          3.88900       45.79200       16.77400
H          3.03200       45.21900       16.41600
C          5.10000       44.84100       16.84000
H          5.98000       45.37600       17.20200
H          4.89600       44.00600       17.50900
H          5.32100       44.41700       15.86100
C          3.55200       46.34000       18.18300
H          4.42600       46.84700       18.59500
H          2.74800       47.07100       18.10900
C          3.08000       45.27200       19.17800
H          2.25200       44.70400       18.75200
H          3.89600       44.59600       19.43200
H          2.74100       45.75900       20.09300
C          4.56100       46.43800       14.38700
O          5.70400       46.60500       13.96800
N          3.62800       45.89400       13.61400
H          2.68400       45.79100       13.96400
H          3.89200       45.53500       12.71200
H        -10.73700       50.41900       18.50700
C         -9.94100       50.64300       19.21700
H        -10.37200       50.80600       20.20400
H         -9.41500       51.54300       18.90100
C         -8.97300       49.48600       19.27400
O         -8.78500       48.88600       20.33100
N         -8.35300       49.15800       18.13900
H         -8.54400       49.72300       17.31900
C         -7.33700       48.09900       17.98500
H         -6.76100       48.04000       18.91000
C         -8.02800       46.74300       17.70000
H         -9.06400       46.76400       18.04400
H         -8.06400       46.58900       16.62000
C         -7.30900       45.54100       18.35000
H         -7.32300       44.71000       17.64500
H         -6.26500       45.78800       18.54300
C         -7.96600       45.05400       19.65500
H         -8.92500       44.59200       19.40800
H         -7.32200       44.29200       20.09900
N         -8.20000       46.14700       20.61800
H         -8.30000       47.08300       20.23800
C         -8.43700       46.06600       21.91300
N         -8.41100       44.93900       22.56800
H         -8.60700       44.91900       23.55200
H         -8.21700       44.09000       22.07000
N         -8.71500       47.15500       22.56500
H         -8.91400       47.14600       23.54700
H         -8.77800       48.02000       22.03200
C         -6.35800       48.46700       16.86000
O         -6.68600       49.28400       16.00700
N         -5.17500       47.85700       16.84600
H         -4.96100       47.17700       17.55800
C         -4.16100       48.04800       15.80400
H         -4.66100       48.16300       14.84000
C         -3.37600       49.33400       16.09500
H         -2.73200       49.53700       15.24400
H         -4.07200       50.17200       16.16900
S         -2.33400       49.31800       17.57700
C         -3.23000       46.82700       15.70500
O         -3.25300       45.95300       16.57300
N         -2.40500       46.76500       14.65600
H         -2.40100       47.53300       13.99300
C         -1.47500       45.66100       14.39400
H         -1.97800       44.72200       14.63200
C         -1.13000       45.63200       12.89500
H         -0.59200       46.54400       12.63300
H         -0.46100       44.79200       12.70600
C         -2.33900       45.49000       11.98700
C         -3.02000       44.25900       11.91200
H         -2.67500       43.41000       12.48400
C         -4.15100       44.12600       11.08600
H         -4.66900       43.17900       11.02500
C         -4.60500       45.22300       10.33200
H         -5.47100       45.11700        9.69300
C         -3.92600       46.45100       10.40200
H         -4.27300       47.29000        9.81300
C         -2.79400       46.58500       11.22600
H         -2.27400       47.52900       11.26600
C         -0.22600       45.74400       15.29000
O          0.85800       46.13200       14.85800
N         -0.36300       45.43400       16.57200
H         -1.28000       45.19100       16.92300
H          0.43800       45.46400       17.18000
