82
0 1
H         13.93000       13.16600       16.48500
C         13.52000       12.65700       15.61500
H         12.54700       12.23600       15.86000
H         14.19300       11.86400       15.29500
C         13.35300       13.65100       14.49100
O         12.24700       13.86300       14.01300
N         14.46000       14.25300       14.06600
H         15.34200       14.00400       14.48800
C         14.50300       15.24700       12.99100
H         13.70800       15.02700       12.27600
C         14.24000       16.64500       13.57200
H         13.23400       16.68400       13.99300
H         14.95700       16.84700       14.37100
C         14.37800       17.71300       12.49300
O         15.46900       18.29800       12.35100
O         13.45400       17.90400       11.67500
C         15.84300       15.19900       12.23400
O         16.88200       14.87100       12.80700
N         15.83000       15.55300       10.94500
H         14.94800       15.83300       10.54500
C         16.99400       15.48700       10.05500
H         17.40000       14.47600       10.11300
C         16.51300       15.71700        8.61500
H         16.10800       16.72400        8.53500
H         17.37300       15.65700        7.94500
S         15.27300       14.51300        8.05100
C         18.15700       16.44100       10.40900
O         19.23600       16.28900        9.84200
N         17.97500       17.41200       11.32000
H         17.04600       17.52700       11.72500
C         19.05900       18.25300       11.86900
H         19.88100       18.28100       11.15200
C         18.58000       19.70600       12.09200
H         17.69000       19.71300       12.72100
H         19.36100       20.23200       12.64100
C         18.34200       20.51400       10.79800
H         18.42000       21.57500       11.03800
H         19.13900       20.28200       10.09100
C         16.98900       20.28500       10.10800
H         17.01200       20.75400        9.12300
H         16.83100       19.22000        9.95500
C         15.82000       20.88100       10.90400
H         15.99200       20.71600       11.97200
H         15.77300       21.95600       10.71500
N         14.55300       20.22400       10.52700
H         13.72300       20.76500       10.75300
H         14.53900       20.00900        9.53700
H         14.47400       19.33700       11.03500
C         19.68100       17.66800       13.15000
O         20.62300       18.23300       13.69000
N         19.19100       16.55000       13.66600
H         19.61800       16.18300       14.49700
H         18.41500       16.07800       13.22200
H          9.53400       23.07200       10.52900
C         10.27400       22.81700        9.77200
H         11.10300       23.52100        9.82100
H          9.82000       22.85800        8.78300
C         10.79100       21.42200       10.02700
O         11.98700       21.23900       10.24100
N          9.89000       20.44100       10.00300
H          8.93400       20.67300        9.79200
C         10.22400       19.02600       10.16300
H         10.83000       18.91500       11.06500
C          8.93000       18.22700       10.36200
H          8.29700       18.31200        9.47800
H          9.17200       17.17600       10.52600
H          8.39100       18.60300       11.23300
C         11.04200       18.49900        8.96700
O         10.68000       18.69800        7.80800
N         12.15100       17.82600        9.26500
H         12.37500       17.73000       10.25500
C         13.21200       17.42500        8.34400
H         14.02600       17.09600        8.98600
C         12.81200       16.19700        7.52000
H         12.40000       15.43700        8.18600
H         12.03000       16.48000        6.81400
S         14.19300       15.46300        6.60300
C         13.79500       18.59000        7.52000
O         14.78500       19.19100        7.92900
N         13.19900       18.96500        6.39600
H         13.58500       19.73200        5.87200
H         12.31800       18.54400        6.14100
