82
0 1
H         21.86600       22.14400        7.27300
C         21.91900       21.06700        7.41500
H         22.95500       20.73700        7.36200
H         21.33600       20.56400        6.64400
C         21.35500       20.71300        8.76800
O         20.38600       19.96900        8.85900
N         21.95700       21.25600        9.82100
H         22.74800       21.86300        9.66800
C         21.58300       21.00700       11.21700
H         20.50500       20.84800       11.27500
C         22.28800       19.72300       11.69900
H         22.09000       18.92400       10.98400
H         23.36500       19.89500       11.71300
C         21.85600       19.23800       13.08700
O         22.23000       18.11800       13.48100
O         21.14500       19.96200       13.82200
C         21.94300       22.21800       12.09600
O         23.04300       22.76000       11.99600
N         21.04000       22.61000       12.99900
H         20.18900       22.07200       13.06300
C         21.27800       23.61200       14.04000
H         21.49500       24.57300       13.57200
C         20.01000       23.73700       14.89800
H         19.82600       22.78600       15.39800
H         20.21900       24.47600       15.67400
S         18.48000       24.25600       14.06900
C         22.45800       23.25200       14.96700
O         23.04700       24.13700       15.58100
N         22.78800       21.95900       15.09100
H         22.22200       21.28700       14.57700
C         23.92700       21.44000       15.87000
H         24.05100       22.05700       16.76100
C         23.62800       19.99500       16.31600
H         23.50100       19.37100       15.43200
H         24.48300       19.61300       16.87700
C         22.38000       19.90400       17.21400
H         22.55500       20.50500       18.10800
H         21.51500       20.32300       16.69900
C         22.04700       18.46900       17.65600
H         22.90100       18.06200       18.20000
H         21.20300       18.51100       18.34700
C         21.69300       17.50700       16.51000
H         22.56600       17.38000       15.86100
H         21.43800       16.53300       16.93300
N         20.56800       18.00900       15.69200
H         20.89300       18.78100       15.10700
H         20.27300       17.34500       14.98300
H         19.76500       18.31400       16.22900
C         25.27200       21.52400       15.12700
O         26.30000       21.16100       15.68200
N         25.30600       21.97900       13.88200
H         26.19700       22.03000       13.42000
H         24.46000       22.28700       13.42500
H         16.37100       21.42600        8.98600
C         17.29900       20.86800        9.09200
H         18.10900       21.54300        9.36500
H         17.54300       20.37600        8.15200
C         17.13600       19.82600       10.17100
O         16.11300       19.79300       10.84400
N         18.15800       18.99700       10.37400
H         18.98100       19.13000        9.79300
C         18.17700       17.88100       11.33200
H         17.24400       17.33000       11.20600
C         19.32500       16.93900       10.93900
H         19.23100       16.65200        9.89100
H         20.28300       17.43400       11.09100
H         19.29300       16.03800       11.55300
C         18.23200       18.30300       12.82400
O         18.72300       17.56000       13.67600
N         17.73300       19.49900       13.15300
H         17.26000       20.00500       12.41400
C         17.88400       20.17700       14.44200
H         18.93800       20.39100       14.60400
C         17.14800       21.52000       14.35100
H         16.09100       21.34100       14.14700
H         17.22400       22.03000       15.31200
S         17.80600       22.61400       13.06200
C         17.40600       19.33600       15.63800
O         18.13500       19.18500       16.61600
N         16.23100       18.72200       15.56100
H         15.67300       18.80900       14.72700
H         15.93700       18.14400       16.33100
