82
0 1
H         17.02000       17.81500       10.32300
C         17.68500       17.26900        9.65600
H         17.13500       16.95100        8.77200
H         18.08800       16.39800       10.17000
C         18.82000       18.16800        9.23700
O         18.88500       19.31800        9.66100
N         19.70700       17.64700        8.39600
H         19.54200       16.72000        8.03300
C         20.85500       18.37000        7.83900
H         20.73600       19.42200        8.08200
C         22.16200       17.90900        8.51600
H         21.95100       17.65600        9.55700
H         22.52700       17.00700        8.02200
C         23.26400       18.98000        8.50500
O         24.08900       19.01800        9.44000
O         23.28700       19.85000        7.60100
C         20.88400       18.27500        6.30200
O         20.33200       17.35400        5.70600
N         21.51800       19.26100        5.67400
H         22.00300       19.92100        6.27200
C         21.64400       19.45300        4.23200
H         21.28500       18.56400        3.71000
C         20.75700       20.64500        3.85100
H         20.75800       20.74500        2.76400
H         19.73400       20.44000        4.16800
S         21.30100       22.22300        4.56900
C         23.09800       19.70700        3.78600
O         23.37500       19.71200        2.58700
N         24.03500       19.93400        4.72200
H         23.75000       19.86200        5.69700
C         25.41500       20.39300        4.46000
H         25.37700       21.11400        3.64200
C         25.96100       21.12300        5.70300
H         26.00300       20.40800        6.52600
H         26.97600       21.46700        5.49300
C         25.11900       22.34800        6.11400
H         25.04100       23.02700        5.26400
H         24.11100       22.03400        6.37900
C         25.72300       23.12400        7.30000
H         26.64000       23.61000        6.96500
H         25.02100       23.90600        7.59800
C         26.05800       22.24800        8.51700
H         26.80300       21.50600        8.21700
H         26.49600       22.87100        9.30100
N         24.85900       21.55700        9.03600
H         25.05700       20.76900        9.64900
H         24.19300       22.16600        9.50200
H         24.34300       21.08200        8.29400
C         26.36300       19.27800        3.97200
O         27.51400       19.19800        4.38300
N         25.89900       18.38400        3.11600
H         24.96400       18.49600        2.75100
H         26.51200       17.65000        2.80600
H         16.98700       21.36600       12.75200
C         17.21900       21.75600       11.76300
H         16.63300       22.65500       11.57700
H         16.99100       21.00700       11.00600
C         18.68700       22.10200       11.69500
O         19.04000       23.25100       11.45800
N         19.54400       21.09500       11.85900
H         19.16400       20.16400       11.93400
C         21.00300       21.22500       11.79400
H         21.32300       21.92200       12.57000
C         21.61100       19.84900       12.09500
H         21.30500       19.51400       13.08600
H         21.28200       19.12400       11.35000
H         22.70000       19.91300       12.06500
C         21.52100       21.77700       10.44900
O         22.62400       22.32100       10.39500
N         20.72100       21.68900        9.38000
H         19.86400       21.16100        9.49500
C         20.96400       22.34500        8.09000
H         21.83300       21.89100        7.61600
C         19.73500       22.08400        7.20400
H         19.64300       21.01400        7.02500
H         18.84700       22.40000        7.75400
S         19.69100       22.92900        5.59900
C         21.25900       23.85500        8.22600
O         22.13600       24.37700        7.54500
N         20.60000       24.56400        9.13800
H         19.94100       24.11400        9.76000
H         20.82300       25.53900        9.23700
