108
1 1
H        -11.65000       15.09100        3.33000
C        -11.34000       15.35900        4.33800
H        -12.15900       15.17900        5.03200
H        -11.05900       16.41100        4.36800
C        -10.15300       14.51700        4.73800
O         -9.08100       15.04800        5.01500
N        -10.33700       13.19800        4.77000
H        -11.26300       12.83200        4.57700
C         -9.33000       12.24500        5.24100
H         -9.83300       11.29500        5.39700
C         -8.27400       11.98300        4.14700
H         -7.82000       12.92300        3.83300
H         -7.49400       11.32500        4.52900
C         -8.89700       11.28000        2.95200
O         -9.60800       10.30100        3.09500
N         -8.66400       11.74700        1.74900
H         -9.09600       11.24700        0.99000
H         -8.09100       12.55700        1.60700
C         -8.81400       12.62300        6.63900
O         -9.60400       12.67900        7.58000
N         -7.51100       12.82800        6.81800
H         -6.89200       12.77400        6.02500
C         -6.93500       13.11100        8.13400
H         -7.36800       12.43300        8.86700
C         -5.43500       12.81300        8.08000
H         -4.94500       13.58800        7.48800
H         -5.03100       12.86400        9.09300
S         -5.00400       11.19800        7.36300
C         -7.23000       14.53800        8.63400
O         -7.26900       14.76000        9.84300
N         -7.48100       15.49600        7.73700
H         -7.55300       15.24500        6.75900
C         -7.66200       16.91200        8.07800
H         -6.83700       17.20400        8.72900
C         -7.56700       17.75200        6.79400
H         -8.44900       17.55400        6.18300
H         -7.58300       18.81000        7.05900
C         -6.31600       17.49000        5.97100
C         -5.04200       17.72800        6.52700
H         -4.94900       18.11900        7.53000
C         -3.88200       17.46100        5.77500
H         -2.90100       17.64200        6.19000
C         -3.99000       16.96500        4.46000
O         -2.86500       16.71600        3.74200
H         -3.04500       16.58600        2.81000
C         -5.26400       16.73000        3.89900
H         -5.34900       16.35500        2.89100
C         -6.42200       16.99100        4.65700
H         -7.39800       16.81200        4.22400
C         -8.96400       17.19400        8.85200
O         -9.87500       16.37200        8.92000
N         -9.07700       18.36700        9.46000
H         -9.92300       18.56400        9.97000
H         -8.33200       19.04300        9.40900
H        -12.75300        7.87400       12.43100
C        -11.77400        7.46700       12.68400
H        -11.58300        6.57800       12.08500
H        -11.75200        7.20900       13.74200
C        -10.71500        8.50500       12.40000
O        -11.02800        9.59400       11.92800
N         -9.45400        8.16500       12.66600
H         -9.27600        7.27500       13.11300
C         -8.31400        9.09500       12.59100
H         -8.44000        9.85600       13.36200
C         -7.00500        8.34900       12.87500
H         -6.75700        7.70200       12.03200
H         -6.20100        9.07400       13.01600
O         -7.14700        7.55700       14.03900
H         -6.27800        7.25400       14.32500
C         -8.20700        9.81200       11.24100
O         -7.97700       11.01900       11.20800
N         -8.47100        9.10700       10.13700
H         -8.70200        8.13000       10.24200
C         -8.56700        9.67600        8.79400
H         -8.57200       10.76000        8.86600
C         -7.33500        9.26300        7.97600
H         -7.32500        8.17500        7.89400
H         -7.42900        9.66200        6.96600
S         -5.73000        9.78900        8.65500
C         -9.89200        9.25200        8.14000
O        -10.07300        8.09500        7.77100
N        -10.82600       10.19900        8.01000
H        -10.56200       11.14500        8.27100
C        -12.16400       10.02800        7.42200
H        -12.52700        9.01900        7.62800
C        -13.12300       11.03900        8.08000
H        -12.72300       12.04800        7.95700
H        -14.08100       11.00000        7.55800
C        -13.37900       10.74000        9.57300
H        -14.44100       10.51900        9.69300
H        -12.83000        9.85200        9.88900
C        -13.03400       11.90800       10.51000
H        -13.52200       12.81400       10.15000
H        -13.45300       11.68100       11.49300
N        -11.57600       12.09900       10.67500
H        -11.09600       11.34400       11.15800
C        -10.85900       13.17300       10.38300
N         -9.59500       13.23800       10.68200
H         -9.10600       12.44200       11.07900
H         -9.04700       14.05200       10.43700
N        -11.38000       14.20300        9.78500
H        -12.33400       14.18000        9.49700
H        -10.78000       14.97100        9.49500
C        -12.10600       10.16900        5.89500
O        -12.47500       11.19500        5.33500
N        -11.53700        9.18200        5.22400
H        -11.18300        8.37900        5.72100
H        -11.37400        9.30100        4.23400
