108
1 1
H        -10.23700       11.68500       14.56100
C        -10.19000       12.73000       14.86300
H         -9.34400       12.87700       15.53400
H        -11.11000       13.00600       15.37600
C        -10.01600       13.60200       13.64400
O        -10.87500       14.42300       13.34300
N         -8.91900       13.40300       12.91600
H         -8.25200       12.73100       13.28200
C         -8.41600       14.27500       11.84000
H         -8.21500       15.25400       12.27900
C         -7.08100       13.69800       11.32600
H         -7.25400       12.72600       10.86500
H         -6.69400       14.36500       10.56200
C         -6.01900       13.51900       12.40200
O         -6.21900       12.82600       13.38300
N         -4.86500       14.12200       12.25400
H         -4.66200       14.66800       11.42200
H         -4.18400       13.97500       12.97700
C         -9.37200       14.52300       10.64900
O         -9.05700       15.32800        9.77100
N        -10.51300       13.83500       10.58300
H        -10.70500       13.19000       11.33500
C        -11.58000       14.08800        9.61200
H        -11.14400       14.39000        8.66300
C        -12.34600       12.78300        9.38100
H        -12.87500       12.52300       10.29900
H        -13.09600       12.94700        8.60500
S        -11.33200       11.35600        8.90300
C        -12.54800       15.21000       10.04000
O        -13.15500       15.83900        9.17600
N        -12.69000       15.48400       11.34200
H        -12.09600       15.00300       12.00900
C        -13.68100       16.42000       11.89100
H        -14.66700       16.09800       11.55300
C        -13.65400       16.31700       13.42400
H        -13.79800       15.27400       13.71100
H        -12.66700       16.61900       13.78000
C        -14.71200       17.14900       14.12300
C        -16.06200       16.75100       14.07000
H        -16.34100       15.83600       13.56500
C        -17.05400       17.54000       14.68400
H        -18.09200       17.24300       14.65500
C        -16.69800       18.72500       15.35800
O        -17.66200       19.47700       15.94800
H        -17.30100       20.19300       16.47300
C        -15.34400       19.12400       15.41300
H        -15.06900       20.03100       15.93000
C        -14.35400       18.33600       14.79500
H        -13.31800       18.64300       14.83800
C        -13.48800       17.87200       11.40800
O        -12.40100       18.27400       10.99900
N        -14.53300       18.68900       11.44200
H        -14.41400       19.64000       11.13400
H        -15.41000       18.37200       11.82500
H        -11.27400       19.29300        3.26100
C        -12.12400       18.63700        3.44100
H        -12.69200       18.51100        2.52100
H        -12.76800       19.07100        4.20500
C        -11.63000       17.29100        3.91300
O        -11.95300       16.86700        5.01900
N        -10.82100       16.62700        3.09000
H        -10.53700       17.07600        2.23100
C        -10.24700       15.30200        3.37100
H        -11.06100       14.57600        3.38300
C         -9.28200       14.91400        2.24400
H         -8.80800       13.95800        2.47000
H         -9.84400       14.81100        1.31400
O         -8.29200       15.90900        2.06700
H         -7.67800       15.89300        2.80900
C         -9.53200       15.23300        4.72800
O         -8.99200       16.22900        5.21400
N         -9.51700       14.05000        5.34900
H         -9.97300       13.26400        4.91200
C         -8.93900       13.83700        6.67700
H         -9.49500       14.44200        7.39000
C         -9.09700       12.35900        7.05600
H         -8.47300       11.76500        6.38600
H         -8.72000       12.21000        8.06900
S        -10.78800       11.70200        6.96800
C         -7.46200       14.26500        6.73000
O         -6.63100       13.75500        5.97900
N         -7.13200       15.21000        7.61600
H         -7.86100       15.53600        8.24500
C         -5.80200       15.83200        7.72500
H         -5.36100       15.90000        6.72900
C         -5.95800       17.26500        8.27200
H         -6.56600       17.24800        9.17900
H         -4.96900       17.63900        8.54600
C         -6.55000       18.24100        7.23200
H         -5.82900       19.04900        7.09300
H         -6.67400       17.75400        6.26400
C         -7.88000       18.88200        7.65500
H         -7.81700       19.16800        8.70600
H         -8.01200       19.79600        7.07200
N         -9.04500       18.01100        7.39400
H         -9.05800       17.51800        6.50500
C        -10.12200       17.85800        8.14300
N        -11.15900       17.21700        7.69100
H        -11.97000       17.06200        8.27800
H        -11.23600       16.97900        6.70500
N        -10.19500       18.34900        9.34500
H         -9.40800       18.82200        9.73600
H        -11.04700       18.24800        9.89000
C         -4.83300       14.96600        8.54000
O         -4.48300       15.28200        9.67100
N         -4.44200       13.82500        7.99700
H         -4.79600       13.56600        7.08700
H         -3.80500       13.23600        8.50700
