97
1 1
H         17.91100       76.88700       57.60600
C         18.05100       76.21900       56.75700
H         18.38900       76.79300       55.89500
H         17.11100       75.72300       56.52400
C         19.09800       75.18900       57.10500
O         20.16100       75.15400       56.49900
N         18.79300       74.32500       58.07100
H         17.88200       74.41400       58.50900
C         19.70000       73.27600       58.55300
H         20.68400       73.70900       58.73700
H         19.32300       72.87800       59.49500
C         19.85700       72.12000       57.56100
O         19.26800       71.05500       57.75900
N         20.58500       72.34100       56.46800
H         20.94800       73.28100       56.33700
C         20.90000       71.34000       55.44600
H         20.01900       70.75700       55.23700
C         21.25000       72.05400       54.14000
H         22.16400       72.63000       54.29800
H         21.44800       71.31600       53.36200
S         19.95700       73.19300       53.54900
C         21.95800       70.32900       55.91900
O         22.86600       70.66800       56.67400
N         21.80300       69.06400       55.50600
H         21.02800       68.86400       54.88400
C         22.52600       67.90300       56.05100
H         23.35300       68.25100       56.67300
C         21.57000       67.06000       56.92000
H         20.77800       66.66900       56.27900
H         22.12200       66.21400       57.33200
C         20.94000       67.85200       58.08300
H         21.73900       68.22300       58.72600
H         20.40100       68.71200       57.69100
C         19.96400       67.02800       58.94000
H         20.51300       66.20300       59.39700
H         19.59200       67.66300       59.74600
C         18.76500       66.44800       58.17000
H         19.13200       65.75400       57.40900
H         18.14700       65.87800       58.86900
N         17.94000       67.49800       57.52600
H         18.47800       68.00600       56.83000
H         17.15400       67.08700       57.02400
H         17.57100       68.16600       58.19900
C         23.11300       67.05100       54.92400
O         22.45200       66.81100       53.92200
N         24.32500       66.54900       55.08900
H         24.85500       66.76100       55.91700
H         24.70800       65.98400       54.34800
H         13.84800       65.77100       55.37100
C         14.23100       66.09000       54.40300
H         13.65700       66.94600       54.05300
H         14.14400       65.26900       53.69200
C         15.68100       66.48300       54.54700
O         16.22800       66.44600       55.64600
N         16.31500       66.86700       53.43800
H         15.80400       66.83700       52.56800
C         17.73400       67.27400       53.40600
H         18.31900       66.46600       53.84800
C         18.22800       67.42800       51.94900
H         18.09300       66.46400       51.45800
C         17.46100       68.47300       51.12500
H         17.80600       68.43700       50.09100
H         16.39200       68.26300       51.13000
H         17.64000       69.47700       51.50600
C         19.71900       67.77200       51.89200
H         20.05900       67.75700       50.85600
H         19.91000       68.76000       52.30900
H         20.28900       67.02800       52.44700
C         18.00300       68.52000       54.26200
O         18.92900       68.51700       55.07500
N         17.15000       69.54100       54.17100
H         16.37100       69.44300       53.53900
C         17.19900       70.75700       54.98900
H         18.14500       70.80100       55.50400
C         17.13500       71.98500       54.07200
H         16.16800       71.98600       53.56700
H         17.19800       72.89600       54.67000
S         18.43500       72.05000       52.79700
C         16.15700       70.73800       56.11800
O         15.26100       69.89700       56.12800
N         16.31900       71.62300       57.10600
H         17.05800       72.30700       57.02900
C         15.60000       71.55900       58.39300
H         14.68100       70.98700       58.26300
C         16.45400       70.87600       59.48600
H         17.12400       71.61500       59.92800
C         15.59300       70.27300       60.59300
H         15.02800       71.05500       61.09900
H         14.90600       69.53800       60.17400
H         16.23600       69.78400       61.32600
O         17.25800       69.83400       58.97100
H         18.02100       70.28800       58.55800
C         15.23300       72.96600       58.86400
O         16.03800       73.88400       58.74000
N         14.04800       73.16400       59.42600
H         13.38900       72.40900       59.52100
H         13.81700       74.09600       59.73500
