97
1 1
H         22.07100       61.43000       62.60700
C         21.03000       61.28900       62.32000
H         20.44500       62.16800       62.58400
H         20.62700       60.42000       62.83700
C         20.94800       61.06700       60.82800
O         21.92700       61.30300       60.12700
N         19.78300       60.64600       60.34100
H         19.00400       60.62100       60.99100
C         19.50900       60.39500       58.92000
H         20.39300       59.96700       58.44400
H         18.69200       59.68100       58.82700
C         19.12900       61.67600       58.17900
O         19.95400       62.26600       57.48300
N         17.90500       62.15800       58.39000
H         17.28700       61.61300       58.98400
C         17.42600       63.46900       57.92700
H         17.43100       63.47800       56.83600
C         15.96500       63.57800       58.40100
H         15.37500       62.92500       57.75600
H         15.88100       63.15400       59.40000
S         15.12800       65.19100       58.42400
C         18.33200       64.63400       58.40100
O         19.08700       64.49300       59.36900
N         18.26900       65.79200       57.73100
H         17.60800       65.85900       56.96500
C         18.86200       67.07100       58.17400
H         19.09000       67.01900       59.23900
C         20.15600       67.41400       57.40400
H         19.98900       67.33500       56.32800
H         20.39700       68.45700       57.61800
C         21.38200       66.58200       57.81500
H         22.27600       67.19700       57.69600
H         21.29500       66.33700       58.86900
C         21.58200       65.30100       56.99300
H         20.62700       64.81400       56.80100
H         22.01600       65.56900       56.02800
C         22.51400       64.31400       57.70800
H         22.75200       63.50700       57.00900
H         23.44500       64.81800       57.98400
N         21.85700       63.73500       58.90200
H         21.70700       64.40300       59.65300
H         20.94200       63.37800       58.63700
H         22.35300       62.92900       59.27700
C         17.83800       68.19600       58.00500
O         17.11100       68.21900       57.02100
N         17.78000       69.13100       58.93800
H         18.34900       69.05300       59.77100
H         17.10800       69.87100       58.82900
H         16.70300       58.08900       59.10900
C         16.71900       58.02600       60.19700
H         17.70600       57.71100       60.53200
H         15.97300       57.30300       60.52200
C         16.39400       59.37900       60.78100
O         16.25400       60.34800       60.03900
N         16.30100       59.43900       62.11200
H         16.46000       58.58800       62.62700
C         15.91000       60.63700       62.88500
H         14.86700       60.84600       62.64800
C         15.99400       60.39600       64.40700
H         15.68700       61.31400       64.90800
C         15.02300       59.29100       64.84000
H         14.01300       59.53200       64.50800
H         15.31800       58.32800       64.42500
H         15.01800       59.21500       65.92900
C         17.40400       60.04000       64.89700
H         17.75300       59.11800       64.43300
H         18.09900       60.84600       64.66400
H         17.39100       59.90600       65.98000
C         16.71200       61.88500       62.49700
O         17.88900       61.79800       62.14900
N         16.06200       63.04900       62.50200
H         15.12100       63.08700       62.85900
C         16.60600       64.24200       61.85800
H         17.09900       63.91300       60.94500
C         15.45800       65.17700       61.45300
H         14.57300       64.59600       61.19200
H         15.20700       65.82000       62.29900
S         15.88900       66.20600       60.03200
C         17.66700       64.97800       62.69100
O         17.45400       65.27800       63.86300
N         18.79200       65.33700       62.06700
H         18.93000       65.03100       61.11000
C         19.78000       66.26400       62.63400
H         19.97900       65.98300       63.66900
C         21.09900       66.22600       61.84200
H         20.95200       66.74200       60.89700
C         22.24300       66.90700       62.58800
H         23.15900       66.83100       62.00200
H         22.01500       67.96400       62.73200
H         22.39700       66.43700       63.56000
O         21.51900       64.90500       61.55800
H         21.67600       64.47500       62.40600
C         19.22100       67.69100       62.60300
O         19.02800       68.26500       61.53400
N         18.96900       68.29300       63.75700
H         19.07000       67.79200       64.62500
H         18.59300       69.22800       63.73800
