79
0 1
H         32.25400       12.39400       24.22800
C         31.39600       11.88600       24.66400
H         31.52000       10.81000       24.56500
H         30.48400       12.20200       24.15900
C         31.28400       12.23000       26.13000
O         30.18300       12.31500       26.66000
N         32.42100       12.44900       26.78900
H         33.28800       12.43800       26.26200
C         32.52500       12.64500       28.24200
H         31.99600       11.81300       28.71000
C         34.00300       12.53900       28.67400
H         34.00300       12.38600       29.75400
H         34.44900       11.64700       28.23200
C         34.91100       13.75500       28.39600
H         34.41000       14.67800       28.68100
H         35.78200       13.66100       29.04400
C         35.43200       13.89200       26.96500
O         34.94500       13.30400       26.01100
N         36.43400       14.71500       26.76500
H         36.81400       15.26300       27.53000
H         36.84200       14.79000       25.84000
C         31.84900       13.92200       28.78400
O         31.72500       14.07300       29.99500
N         31.39800       14.82400       27.90700
H         31.53600       14.63000       26.92200
C         30.58500       16.00000       28.23800
H         30.26000       15.92400       29.27700
C         31.43600       17.27400       28.10000
H         31.63500       17.43400       27.04100
H         30.84800       18.12000       28.45900
S         33.02000       17.26900       28.98700
C         29.30500       16.07000       27.37400
O         28.72600       17.14400       27.20800
N         28.89300       14.95200       26.76200
H         29.41100       14.09500       26.93400
C         27.83500       14.88000       25.75000
H         27.56900       13.83500       25.58800
H         26.95300       15.41000       26.11100
C         28.25700       15.48500       24.40600
O         28.45200       14.77800       23.42300
N         28.43300       16.79700       24.34200
H         28.33000       17.34400       25.18700
H         28.70800       17.21100       23.46900
H         40.02100       17.47800       22.84700
C         38.97300       17.25700       23.04000
H         38.68000       16.36700       22.48500
H         38.34700       18.09300       22.73200
C         38.76900       17.00200       24.51400
O         38.25000       15.95800       24.89000
N         39.16300       17.96600       25.34900
H         39.59900       18.78500       24.95900
C         39.02600       17.88400       26.81100
H         39.57200       17.00600       27.16100
C         39.66800       19.13300       27.42700
H         39.14500       20.03100       27.09400
H         39.60800       19.07100       28.51500
H         40.71800       19.19400       27.13700
C         37.56100       17.71900       27.26700
O         37.29200       17.00200       28.23100
N         36.62200       18.29600       26.51300
H         36.94200       18.82800       25.71900
C         35.23200       17.85300       26.44600
H         35.07800       17.02400       27.13600
C         34.27400       18.98800       26.83100
H         34.69700       19.94100       26.51200
H         33.33700       18.85500       26.28900
S         33.85500       19.08900       28.58900
C         34.91500       17.33700       25.03600
O         35.44500       17.84500       24.04700
N         33.99600       16.37600       24.95600
H         33.61200       16.01000       25.81400
C         33.46300       15.80800       23.71900
H         33.45600       16.56600       22.93500
H         34.09600       14.98000       23.39900
C         32.03700       15.29200       23.92200
O         31.55800       15.19900       25.04900
N         31.33800       14.96000       22.84700
H         31.73900       15.03900       21.92800
H         30.37700       14.66200       22.97200
