79
0 1
H         38.40000       20.01400       27.28900
C         37.82100       20.75100       27.84400
H         37.40900       21.48800       27.15800
H         38.45600       21.24800       28.57400
C         36.69900       20.04800       28.56900
O         36.79500       18.86000       28.85200
N         35.62300       20.77400       28.86300
H         35.61000       21.73900       28.54800
C         34.49900       20.30500       29.68400
H         34.89300       20.04200       30.66700
C         33.51600       21.47700       29.85900
H         34.07200       22.33600       30.23700
H         33.09200       21.73900       28.89000
C         32.36300       21.18300       30.83400
H         31.72100       20.40500       30.42200
H         32.77900       20.82200       31.77500
C         31.49600       22.40700       31.12800
O         31.61100       23.46700       30.53200
N         30.57500       22.30700       32.05900
H         30.02600       23.12900       32.23500
H         30.44900       21.44900       32.56400
C         33.79800       19.04700       29.13500
O         33.24700       18.27400       29.91500
N         33.84600       18.79900       27.82100
H         34.37800       19.42200       27.22600
C         33.30900       17.57000       27.22400
H         32.32600       17.37900       27.65600
C         33.11700       17.77500       25.71700
H         34.03300       18.17600       25.28700
H         32.93800       16.80200       25.25600
S         31.71300       18.84200       25.28500
C         34.15200       16.31200       27.52400
O         33.69300       15.20600       27.25400
N         35.34900       16.45400       28.10600
H         35.69800       17.39100       28.28200
C         36.12900       15.34500       28.66900
H         36.06100       14.48100       28.00800
H         37.17300       15.65000       28.73200
C         35.68200       14.90700       30.07300
O         36.23900       13.97000       30.63000
N         34.70000       15.56000       30.68600
H         34.24300       16.34000       30.23600
H         34.42200       15.24900       31.60100
H         29.61000       25.76900       28.66800
C         29.77600       24.94000       27.98300
H         29.02800       24.96100       27.19200
H         29.71000       24.00000       28.52800
C         31.15000       25.06800       27.37300
O         31.28100       25.16400       26.15700
N         32.18500       25.03000       28.20700
H         31.98700       24.83100       29.18300
C         33.59600       25.12600       27.81600
H         33.68500       25.90600       27.05800
C         34.40000       25.57300       29.04600
H         35.44800       25.70600       28.77500
H         34.01100       26.52200       29.41900
H         34.32800       24.82200       29.83400
C         34.12200       23.81700       27.17900
O         35.14200       23.27000       27.59400
N         33.38700       23.27200       26.20500
H         32.57500       23.80700       25.91100
C         33.47800       21.88200       25.74700
H         33.17400       21.23200       26.56700
C         32.46400       21.70600       24.61000
H         31.46600       21.92700       24.99200
H         32.68600       22.43700       23.83000
S         32.41400       20.07300       23.82400
C         34.88300       21.43100       25.30800
O         35.29500       20.32400       25.65100
N         35.61600       22.27100       24.57000
H         35.21700       23.17100       24.35800
C         36.96200       21.99000       24.04500
H         37.42200       22.92400       23.72100
H         37.57400       21.57300       24.84400
C         37.00900       21.00400       22.86800
O         37.71900       21.23800       21.90000
N         36.23300       19.92900       22.89100
H         35.68000       19.73400       23.71200
H         36.26200       19.30000       22.10600
