79
0 1
H         31.23900       26.39600       27.73100
C         31.70100       25.41700       27.60900
H         32.27900       25.39300       26.68600
H         30.92600       24.65300       27.57000
C         32.61400       25.14200       28.77900
O         32.40400       24.16200       29.48300
N         33.61000       26.01300       28.95800
H         33.64100       26.76400       28.28700
C         34.69400       26.03700       29.96600
H         35.38400       26.79700       29.59800
C         34.20900       26.61300       31.32100
H         35.08000       26.73400       31.96600
H         33.82900       27.61700       31.12500
C         33.11700       25.86900       32.11800
H         32.84200       26.47900       32.97800
H         32.22300       25.76100       31.50600
C         33.55000       24.50700       32.64700
O         34.71500       24.25400       32.90000
N         32.64400       23.57300       32.79800
H         31.66000       23.77400       32.65800
H         32.97100       22.63400       33.00200
C         35.60100       24.78500       30.06300
O         36.82000       24.93600       30.10000
N         35.05300       23.56800       30.02200
H         34.04200       23.53300       30.00900
C         35.76400       22.28900       29.89300
H         35.03400       21.51600       30.08100
C         36.19500       22.10400       28.43400
H         36.86900       22.91900       28.16700
H         36.75300       21.17200       28.33800
S         34.82500       22.06300       27.24000
C         36.87600       21.98400       30.92400
O         37.69300       21.09300       30.69000
N         36.90000       22.66400       32.07200
H         36.15500       23.33300       32.24800
C         37.96100       22.56000       33.08100
H         37.56900       22.92100       34.03200
H         38.24700       21.51500       33.20300
C         39.22800       23.36500       32.76000
O         40.23200       23.23000       33.44800
N         39.22800       24.20800       31.73400
H         38.39200       24.33300       31.17800
H         40.07000       24.72000       31.53600
H         37.84900       17.41800       29.78300
C         37.07300       17.95200       29.23900
H         36.84400       17.42600       28.31300
H         37.41500       18.96000       29.01400
C         35.82800       18.01900       30.09000
O         34.80200       17.45500       29.72800
N         35.90400       18.72600       31.21500
H         36.77000       19.21600       31.39700
C         34.80600       18.89600       32.17700
H         34.30000       17.93500       32.28700
C         35.41800       19.26200       33.53800
H         35.92500       20.22500       33.47400
H         34.62900       19.32700       34.28800
H         36.13200       18.49600       33.84300
C         33.73800       19.90700       31.69200
O         33.43600       20.88900       32.36900
N         33.24800       19.73800       30.46200
H         33.52800       18.90100       29.96000
C         32.45300       20.73700       29.74500
H         32.94700       21.70100       29.84700
C         32.42700       20.38500       28.25300
H         31.88300       19.44500       28.14400
H         31.86600       21.15300       27.72000
S         34.03700       20.18700       27.42900
C         31.02900       20.91000       30.30100
O         30.40700       19.96700       30.78700
N         30.48500       22.12400       30.17900
H         31.07400       22.87500       29.83400
C         29.16700       22.47600       30.70800
H         28.78600       23.35000       30.17900
H         28.47200       21.65000       30.55500
C         29.24300       22.81200       32.19600
O         29.81800       23.82800       32.57400
N         28.67200       21.98300       33.05600
H         28.26500       21.12100       32.72800
H         28.73500       22.19300       34.03900
