99
0 1
H          8.50400      -28.99400       85.55100
C          9.57600      -29.05300       85.72800
H         10.10200      -29.12300       84.77700
H          9.79800      -29.92400       86.34100
C         10.02400      -27.80300       86.44500
O         10.66500      -26.94500       85.85000
N          9.68300      -27.69400       87.72700
H          9.23300      -28.48600       88.15900
C          9.98200      -26.52700       88.57900
H          9.86500      -25.63500       87.96300
C          8.96800      -26.38600       89.73900
H          9.31400      -25.59300       90.40400
C          7.60400      -25.95000       89.18800
H          6.91000      -25.78200       90.01300
H          7.71000      -25.01800       88.63200
H          7.19500      -26.71600       88.52900
C          8.75300      -27.65800       90.57100
H          8.05400      -27.44900       91.38100
H          8.35000      -28.46400       89.95900
H          9.69300      -27.97700       91.01400
C         11.44900      -26.50500       89.03600
O         11.76400      -26.65900       90.21500
N         12.35800      -26.31300       88.07700
H         12.01700      -26.27000       87.12200
C         13.80000      -26.19500       88.29500
H         14.13900      -27.10600       88.76800
C         14.50200      -26.11400       86.93500
H         14.01800      -25.34600       86.33000
H         15.54300      -25.82100       87.08200
S         14.46900      -27.69100       86.04000
C         14.14200      -25.00700       89.21400
O         14.11400      -23.85500       88.78000
N         14.43700      -25.28400       90.48900
H         14.45700      -26.26600       90.75300
C         14.59000      -24.31400       91.58000
H         14.96800      -23.37500       91.17600
C         13.22900      -24.06000       92.26300
H         12.78300      -25.02200       92.52300
H         13.39800      -23.51600       93.19300
C         12.21400      -23.25800       91.43200
H         12.02700      -23.75000       90.47900
H         11.26900      -23.23100       91.97500
C         12.66500      -21.81900       91.20300
O         12.50000      -20.95200       92.04100
N         13.27700      -21.50900       90.08300
H         13.49700      -22.23600       89.40700
H         13.54400      -20.55000       89.96500
C         15.59500      -24.80100       92.63900
O         15.66400      -25.97900       92.97900
N         16.36200      -23.88900       93.22200
H         17.00700      -24.19200       93.93300
H         16.28300      -22.91900       92.96500
H         19.20600      -28.50600       93.98500
C         18.17400      -28.15900       94.01800
H         18.09200      -27.19400       93.52100
H         17.84600      -28.07200       95.05100
C         17.29700      -29.15700       93.30000
O         17.78900      -30.14800       92.77500
N         15.99300      -28.89600       93.26400
H         15.68900      -27.98600       93.59000
C         15.05700      -29.68100       92.46200
H         15.31300      -30.74100       92.52700
C         13.62900      -29.48300       93.00400
H         13.53900      -29.94500       93.98600
H         13.41100      -28.41800       93.09500
C         12.61200      -30.11800       92.07100
O         12.44400      -31.32400       92.03400
N         11.97300      -29.35000       91.22200
H         11.39700      -29.79300       90.52000
H         12.15300      -28.35200       91.16900
C         15.13800      -29.24200       90.99400
O         14.81400      -28.09600       90.70000
N         15.48100      -30.13900       90.06700
H         15.83700      -31.03600       90.36700
C         15.29700      -29.92400       88.62700
H         14.33200      -29.44600       88.47400
C         16.37800      -28.95900       88.11700
H         16.33000      -28.03400       88.69000
H         17.35300      -29.41000       88.30900
S         16.30900      -28.52500       86.35500
C         15.35000      -31.26000       87.85500
O         16.35200      -31.96400       87.97100
N         14.31300      -31.64500       87.08000
C         14.42000      -32.72700       86.11600
H         14.19300      -33.67600       86.60300
H         15.41300      -32.76500       85.66400
C         13.37000      -32.41500       85.05600
H         13.04800      -33.31200       84.52600
H         13.75900      -31.66900       84.36000
C         12.24600      -31.80900       85.89200
H         11.64200      -32.61400       86.31600
H         11.62300      -31.14700       85.29100
C         12.97200      -31.04300       87.00900
H         13.05900      -29.99900       86.71400
C         12.18000      -31.12500       88.32700
O         11.27100      -30.33400       88.56200
N         12.52500      -32.04600       89.21900
H         13.26600      -32.69600       89.01600
H         12.08700      -32.03700       90.13300
