99
0 1
H         14.36600      -13.11400       98.03400
C         14.94000      -12.75200       97.18300
H         15.99600      -12.70500       97.44700
H         14.59300      -11.76000       96.89900
C         14.76300      -13.69900       96.02200
O         15.71800      -14.33700       95.59100
N         13.54000      -13.79700       95.50600
H         12.80700      -13.22600       95.89300
C         13.21800      -14.66200       94.36000
H         13.72000      -15.61300       94.52700
C         11.70600      -14.97000       94.31500
H         11.41700      -15.33800       95.30000
C         10.82600      -13.75300       94.00000
H          9.77500      -14.02700       94.09900
H         11.04000      -12.94200       94.69500
H         11.00200      -13.40600       92.98200
C         11.38500      -16.07700       93.30700
H         10.32300      -16.31800       93.35400
H         11.62800      -15.75600       92.29400
H         11.95100      -16.97300       93.56000
C         13.77200      -14.09600       93.04500
O         13.56500      -12.92600       92.72400
N         14.49800      -14.92700       92.29500
H         14.73900      -15.82600       92.69600
C         15.11700      -14.61800       90.99800
H         15.75800      -15.46500       90.76400
C         14.06500      -14.55800       89.87800
H         13.42300      -13.69300       90.04900
H         14.59300      -14.38800       88.93900
S         13.01200      -16.02100       89.64300
C         16.07000      -13.40300       90.99700
O         16.27100      -12.76300       89.96500
N         16.65300      -13.06200       92.15200
H         16.46800      -13.63600       92.96200
C         17.60600      -11.95700       92.29200
H         17.29100      -11.14100       91.64000
C         17.58900      -11.43100       93.74000
H         17.92200      -12.21900       94.41800
H         18.28800      -10.59700       93.81600
C         16.19900      -10.94900       94.19200
H         15.52800      -11.80100       94.26000
H         16.28200      -10.51000       95.18600
C         15.59100       -9.91100       93.25500
O         16.07800       -8.80400       93.11800
N         14.51400      -10.22400       92.57000
H         14.12100      -11.16000       92.61500
H         14.17000       -9.52500       91.93800
C         19.00700      -12.37700       91.81200
O         19.91400      -12.63100       92.59900
N         19.18600      -12.52200       90.50800
H         18.39500      -12.40700       89.88900
H         20.07900      -12.83900       90.17100
H         14.90300      -24.55500       96.54300
C         14.93000      -23.91200       97.42100
H         15.95100      -23.82200       97.78600
H         14.29800      -24.33500       98.20100
C         14.40600      -22.54300       97.05500
O         13.42000      -22.09100       97.62100
N         15.06800      -21.88500       96.10700
H         15.85800      -22.33500       95.66800
C         14.69300      -20.56600       95.59200
H         13.60300      -20.48500       95.58700
C         15.26000      -19.48400       96.53600
H         14.86000      -19.63000       97.53900
H         16.34400      -19.59000       96.57900
C         14.91900      -18.06700       96.10200
O         13.87000      -17.80500       95.53400
N         15.81400      -17.13300       96.32000
H         15.64600      -16.20800       95.93400
H         16.68400      -17.35000       96.76200
C         15.19100      -20.38900       94.14500
O         16.19300      -20.98600       93.75100
N         14.52400      -19.53400       93.36900
H         13.78600      -18.99900       93.81200
C         15.03400      -19.04500       92.08900
H         15.28600      -19.89500       91.46000
C         13.90600      -18.27200       91.40200
H         13.03100      -18.91900       91.31700
H         13.63300      -17.43600       92.04200
S         14.27400      -17.61900       89.75600
C         16.27200      -18.14900       92.34300
O         16.13100      -17.17500       93.08800
N         17.46700      -18.44700       91.79100
C         17.77400      -19.60200       90.95500
H         17.54900      -19.36500       89.91400
H         17.23300      -20.49500       91.26700
C         19.27100      -19.85200       91.12100
H         19.70500      -20.31700       90.23500
H         19.44400      -20.46800       92.00500
C         19.82000      -18.44900       91.35500
H         19.93200      -17.94000       90.39600
H         20.77000      -18.47000       91.89100
C         18.71600      -17.78100       92.18100
H         18.89000      -18.00100       93.23400
C         18.73800      -16.25600       91.99300
O         18.18500      -15.71700       91.04200
N         19.43700      -15.54900       92.87000
H         19.89400      -16.00100       93.64300
H         19.51700      -14.54900       92.74100
