81
-1 1
H         30.24000       45.34200       30.30400
C         30.36100       45.97800       29.43100
H         31.36400       46.40200       29.41400
H         29.62900       46.78400       29.44800
C         30.15300       45.16300       28.17700
O         31.02300       45.12700       27.31400
N         28.99100       44.52600       28.06600
H         28.29600       44.67500       28.78200
C         28.55500       43.76600       26.89000
H         29.12600       44.06800       26.01100
H         28.71600       42.70200       27.05500
C         27.07000       44.00000       26.61600
O         26.30600       44.23700       27.55100
N         26.67400       43.96300       25.34300
H         27.38200       43.82800       24.63000
C         25.39000       44.48400       24.86200
H         25.45800       44.44600       23.77900
C         24.20100       43.59700       25.26200
H         24.06400       43.65200       26.34200
H         23.31000       44.02100       24.79600
S         24.29900       41.85000       24.77300
C         25.20500       45.97700       25.18300
O         24.17700       46.42000       25.69700
N         26.24500       46.75500       24.87600
H         27.03300       46.28200       24.43900
C         26.37600       48.19700       25.08800
H         26.04300       48.41900       26.10300
C         27.86900       48.57000       24.97600
H         28.20800       48.41100       23.95400
H         27.98600       49.63000       25.20100
C         28.78100       47.80000       25.91700
O         28.95000       48.15400       27.07200
N         29.40800       46.74500       25.45200
H         30.05800       46.27000       26.06600
H         29.16300       46.35400       24.54200
C         25.48600       49.02500       24.12700
O         25.94600       49.94300       23.45400
N         24.21400       48.68700       23.97700
H         23.64300       49.19800       23.32600
H         23.84500       47.90600       24.50700
H         31.39300       43.60800       18.97100
C         30.44400       43.58000       19.50300
H         29.98300       44.56600       19.49700
H         30.60100       43.26600       20.53400
C         29.51800       42.60100       18.82200
O         29.86400       42.04700       17.78500
N         28.34300       42.39700       19.41200
H         28.17600       42.91100       20.27400
C         27.29600       41.49500       18.90800
H         27.36900       41.44400       17.82100
C         27.56500       40.09400       19.47600
H         26.82600       39.39300       19.08600
H         28.56000       39.75900       19.17800
H         27.50000       40.11500       20.56400
C         25.85700       41.95100       19.23800
O         24.89700       41.44300       18.66100
N         25.69900       42.90200       20.15900
H         26.53300       43.25300       20.62700
C         24.42500       43.40500       20.68300
H         23.69100       43.41700       19.87600
C         23.93200       42.43400       21.77400
H         23.12200       42.90900       22.32700
H         23.52500       41.54900       21.28500
S         25.20400       41.88000       22.94800
C         24.57700       44.86700       21.16400
O         23.92500       45.30800       22.11000
N         25.49100       45.60700       20.53200
H         25.92900       45.19700       19.72100
C         26.11800       46.82900       21.03900
H         25.66100       47.09200       21.99200
C         27.61800       46.56900       21.28600
H         28.11800       46.47200       20.32100
H         28.04600       47.43500       21.79200
C         27.90800       45.30400       22.10300
O         27.84100       44.19000       21.53500
O         28.18800       45.45300       23.31400
C         25.93000       48.01900       20.08100
O         25.79000       47.85700       18.87200
N         25.95500       49.24500       20.58700
H         26.07800       49.39800       21.58000
H         25.84700       50.01900       19.95400
