88
0 1
H         29.63700       10.64800       28.86300
C         30.08600       10.33600       29.80400
H         29.32900       10.33800       30.58600
H         30.89200       11.01500       30.07600
C         30.63900        8.93900       29.65600
O         30.25600        8.04400       30.39900
N         31.55600        8.75500       28.70700
H         31.82700        9.55300       28.15700
C         32.19700        7.46700       28.40200
H         31.43400        6.69500       28.47400
C         32.72400        7.47300       26.95200
H         33.48300        8.25200       26.86400
H         33.21100        6.51500       26.75900
C         31.65400        7.69700       25.86500
H         31.16500        8.65800       26.02700
C         32.32300        7.73100       24.49100
H         32.80800        6.77600       24.28500
H         31.57600        7.92700       23.72200
H         33.06900        8.52500       24.46300
C         30.59200        6.59600       25.84900
H         31.06300        5.62000       25.74000
H         30.01000        6.62100       26.77100
H         29.90600        6.75800       25.01800
C         33.27700        7.08500       29.43700
O         34.45100        6.92900       29.10700
N         32.88000        6.95500       30.70300
H         31.90000        7.14400       30.88800
C         33.73600        6.69700       31.87000
H         34.60000        7.36100       31.81100
C         32.93500        7.06700       33.12500
H         32.12300        6.35500       33.21400
H         33.56900        6.94500       34.00400
S         32.23300        8.74000       33.15100
C         34.27600        5.24700       31.94100
O         34.17800        4.58200       32.97300
N         34.80300        4.72000       30.83200
H         34.86300        5.31500       30.01300
C         35.10800        3.29500       30.68400
H         35.61800        3.12200       29.73700
H         35.76500        2.98200       31.49600
C         33.83100        2.44700       30.71200
O         32.81800        2.81800       30.12600
N         33.85700        1.31100       31.39200
H         34.68300        1.02900       31.89000
H         32.97600        0.82800       31.53000
H         25.18800        9.29400       37.82900
C         26.03300        9.05300       38.47100
H         25.67900        8.67600       39.42800
H         26.63500        9.94600       38.63300
C         26.88800        8.00200       37.80300
O         28.05700        8.24200       37.53200
N         26.29900        6.83900       37.52700
H         25.32700        6.73600       37.77100
C         26.96600        5.69200       36.89400
H         27.92100        5.51700       37.39000
H         26.35000        4.80200       37.02000
C         27.23700        5.87800       35.39700
O         26.68400        5.14900       34.57800
N         28.05700        6.86500       35.03400
H         28.46800        7.43100       35.76900
C         28.48800        7.10000       33.65600
H         27.59400        7.17400       33.03600
C         29.20700        8.45700       33.59900
H         29.41900        8.69600       32.56000
H         28.51100        9.21400       33.95900
S         30.74700        8.64600       34.54900
C         29.32700        5.92300       33.11800
O         30.12300        5.34000       33.85300
N         29.13900        5.56500       31.84400
H         28.51900        6.13400       31.28300
C         29.79800        4.46700       31.11600
H         30.84400        4.40000       31.41600
C         29.09300        3.11500       31.37900
H         28.01900        3.24900       31.24200
H         29.42700        2.40000       30.62600
C         29.33300        2.45900       32.75000
H         28.97000        3.10600       33.54700
H         28.75100        1.53800       32.79600
C         30.79800        2.10100       32.98400
O         31.26700        1.03400       32.62300
N         31.57400        2.98400       33.57100
H         32.55900        2.80300       33.63500
H         31.18000        3.87900       33.84700
C         29.76300        4.75400       29.60400
O         28.91000        5.48500       29.10900
N         30.66500        4.16900       28.83100
H         31.36700        3.56300       29.24100
H         30.61800        4.31900       27.83800
