104
1 1
H         22.05200       28.13100        2.60500
C         22.51600       27.34600        3.20000
H         23.36000       26.91900        2.66200
H         21.78200       26.56600        3.39900
C         22.98900       27.92000        4.51300
O         22.53500       27.50500        5.57300
N         23.90700       28.88700        4.45600
H         24.26800       29.15800        3.55400
C         24.46000       29.51000        5.67400
H         24.78100       28.70300        6.33400
C         25.72000       30.33700        5.36000
H         26.34600       29.74800        4.68900
C         25.45800       31.69300        4.70500
H         26.41200       32.15700        4.45100
H         24.88100       31.56100        3.79000
H         24.91900       32.35500        5.38400
O         26.45900       30.56300        6.53400
H         26.10400       31.34500        6.99400
C         23.41500       30.31300        6.45700
O         23.47300       30.34200        7.68400
N         22.42600       30.91100        5.77700
H         22.40500       30.78800        4.77800
C         21.27800       31.58800        6.38800
H         21.53800       31.91600        7.38200
C         20.92500       32.85300        5.60200
H         20.76000       32.57700        4.55900
H         19.98500       33.25400        5.98400
S         22.15700       34.18900        5.65800
C         20.06900       30.65700        6.54800
O         19.57700       30.09100        5.57600
N         19.57600       30.54500        7.78700
H         20.08000       31.02700        8.52700
C         18.39300       29.77700        8.20200
H         17.67000       29.79400        7.38400
C         18.76400       28.30100        8.47300
H         17.89800       27.80700        8.91700
H         18.94500       27.80600        7.51700
C         19.97700       28.07600        9.40200
H         20.12600       28.94500       10.04400
H         19.77100       27.21700       10.04200
C         21.25400       27.77500        8.59900
H         21.10700       26.84000        8.05400
H         21.42400       28.55600        7.86000
C         22.51000       27.62700        9.46500
H         22.32500       26.90800       10.26700
H         23.30200       27.22800        8.82400
N         22.95700       28.92500       10.01800
H         22.37900       29.26200       10.78400
H         23.91700       28.88700       10.35000
H         22.94600       29.64200        9.29400
C         17.71600       30.43000        9.41300
O         18.32300       31.21600       10.13400
N         16.45400       30.11500        9.65600
H         15.96900       29.47000        9.05500
H         16.00000       30.54100       10.44700
H         23.63900       31.89500       14.78100
C         22.99900       31.03000       14.61500
H         22.21800       31.00400       15.37400
H         23.59400       30.11900       14.67800
C         22.36100       31.11400       13.25000
O         22.43000       30.16600       12.47300
N         21.74300       32.25500       12.94600
H         21.75100       33.00700       13.61900
C         20.94200       32.45000       11.72400
H         20.20100       31.65200       11.68300
C         20.17600       33.78200       11.74900
H         19.68300       33.92700       10.78700
C         19.11800       33.82100       12.85000
H         18.42400       32.99100       12.71500
H         19.58200       33.74500       13.83300
H         18.55800       34.75400       12.78800
O         21.07000       34.84900       11.98100
H         20.54700       35.65700       12.02400
C         21.77300       32.33200       10.44500
O         21.57600       31.37800        9.69800
N         22.72000       33.24500       10.20200
H         22.75700       34.03400       10.83500
C         23.54600       33.28600        8.98100
H         23.09700       32.64400        8.24200
C         23.50600       34.68700        8.36500
H         23.67100       35.42900        9.14800
H         24.31800       34.78500        7.64200
S         21.95900       35.07600        7.49600
C         24.97300       32.72500        9.11000
O         25.67900       32.64000        8.10600
N         25.40200       32.30600       10.30500
H         24.76400       32.35500       11.08300
C         26.69100       31.61600       10.50600
H         27.42400       32.09000        9.85100
C         27.20200       31.81000       11.94900
H         27.25800       32.88400       12.13500
C         26.27900       31.20400       13.01400
H         26.66300       31.43900       14.00700
H         25.28000       31.62200       12.92200
H         26.22700       30.12000       12.90600
C         28.61100       31.23900       12.14200
H         29.28700       31.65900       11.39700
H         28.98100       31.50700       13.13200
H         28.60300       30.15200       12.05600
C         26.60500       30.14000       10.09000
O         25.63200       29.45000       10.38900
N         27.61500       29.62200        9.40600
H         27.55000       28.66600        9.10000
H         28.38600       30.20300        9.11900
