104
1 1
H         21.69400       29.88700        8.44000
C         21.09800       30.64200        7.92900
H         21.63900       31.58600        7.90800
H         20.15300       30.77800        8.45300
C         20.82800       30.19200        6.51400
O         21.21600       30.87900        5.57400
N         20.12500       29.06700        6.37800
H         19.87300       28.60800        7.24000
C         19.77800       28.35300        5.12400
H         19.18800       27.49000        5.43000
C         18.85700       29.15800        4.18200
H         18.50500       28.48700        3.39900
C         17.63400       29.74500        4.88500
H         17.93300       30.49700        5.61600
H         16.98800       30.21600        4.14300
H         17.07600       28.95200        5.38300
O         19.54900       30.21500        3.56600
H         20.07700       30.64400        4.25900
C         20.97900       27.79200        4.35000
O         21.98900       28.46400        4.14900
N         20.87800       26.53800        3.90000
H         20.02700       26.02500        4.06700
C         21.85900       25.91900        3.00300
H         22.86700       26.16500        3.33200
C         21.70000       24.39600        3.05600
H         20.74800       24.13900        2.58700
H         22.49200       23.93300        2.46500
S         21.71100       23.66100        4.71900
C         21.67600       26.46900        1.58100
O         20.55300       26.52700        1.08400
N         22.76500       26.91500        0.94400
H         23.66500       26.78100        1.38800
C         22.71100       27.80400       -0.23300
H         21.86900       27.49400       -0.85500
C         22.43200       29.24900        0.24300
H         22.40900       29.91900       -0.61800
H         21.43800       29.26400        0.69500
C         23.44400       29.78800        1.27500
H         23.56600       29.05900        2.07200
H         24.41200       29.93800        0.79600
C         22.96600       31.11100        1.89600
H         22.98000       31.88500        1.12700
H         21.93800       31.00100        2.24900
C         23.85100       31.55600        3.07000
H         24.89700       31.54400        2.75200
H         23.58500       32.58200        3.33600
N         23.67100       30.68400        4.25300
H         24.27200       30.93200        5.03500
H         22.70900       30.68300        4.58400
H         23.87900       29.71000        4.04000
C         23.96200       27.70800       -1.11100
O         25.01700       27.27400       -0.66100
N         23.86800       28.11900       -2.36400
H         24.68400       28.05200       -2.95100
H         22.99300       28.46700       -2.71900
H         29.36100       24.36100        6.39400
C         29.06000       24.40700        5.34800
H         28.47300       23.52500        5.09800
H         29.94900       24.44800        4.72000
C         28.23200       25.64900        5.12700
O         27.98500       26.40800        6.05800
N         27.75500       25.85000        3.89900
H         27.95200       25.16700        3.18200
C         27.01700       27.06800        3.50000
H         27.63300       27.92800        3.75800
C         26.76600       27.12000        1.98600
H         26.33200       28.09100        1.74300
C         28.03500       26.94500        1.15300
H         27.80400       27.11700        0.10100
H         28.78600       27.67000        1.46800
H         28.43400       25.93700        1.26500
O         25.85500       26.11900        1.60400
H         25.65900       26.30500        0.66600
C         25.67800       27.26800        4.22000
O         25.06500       28.32000        4.06900
N         25.23200       26.30100        5.02800
H         25.78400       25.46000        5.08500
C         24.06700       26.40100        5.90800
H         23.20100       26.66900        5.31900
C         23.81600       25.01800        6.51600
H         24.64600       24.78400        7.18500
H         22.90900       25.05500        7.12200
S         23.66000       23.65000        5.32700
C         24.20000       27.47400        7.00800
O         23.18800       27.89700        7.56600
N         25.42200       27.92900        7.31500
H         26.21600       27.52300        6.83200
C         25.69300       29.01100        8.27800
H         25.22300       28.74400        9.22500
C         27.21400       29.13500        8.52600
H         27.72100       29.24400        7.56700
C         27.59500       30.33300        9.40700
H         27.06600       30.28900       10.35900
H         28.66900       30.32100        9.60000
H         27.36400       31.26900        8.89800
C         27.74800       27.87600        9.22400
H         28.82600       27.95900        9.36200
H         27.27200       27.75100       10.19700
H         27.55600       26.99200        8.61800
C         25.07700       30.34400        7.82000
O         25.09100       30.69800        6.64300
N         24.53200       31.12300        8.74500
H         24.14400       32.00700        8.46200
H         24.52300       30.83400        9.70900
