104
1 1
H         28.41200       33.46800       11.83300
C         27.55900       32.83800       12.08100
H         27.19500       33.09400       13.07500
H         27.85700       31.79200       12.05700
C         26.45800       33.08100       11.07800
O         25.44800       33.69500       11.39600
N         26.63100       32.57800        9.85700
H         27.44300       31.99500        9.70400
C         25.63100       32.66900        8.77600
H         25.15800       33.64900        8.84200
C         26.31300       32.60800        7.38900
H         26.88700       33.52600        7.26000
C         27.28100       31.43800        7.19800
H         28.16000       31.57600        7.82700
H         26.80000       30.50100        7.46500
H         27.60600       31.39700        6.15800
O         25.37700       32.54000        6.33500
H         24.93400       33.39100        6.27100
C         24.50700       31.64200        8.99300
O         24.37300       30.66700        8.25900
N         23.74000       31.78800       10.07400
H         23.93400       32.57500       10.68700
C         22.67900       30.85200       10.46400
H         23.07700       29.84100       10.45300
C         22.26100       31.14600       11.90500
H         21.80200       32.13600       11.93500
H         21.51000       30.41900       12.21800
S         23.62300       31.11900       13.11000
C         21.49700       30.85300        9.47900
O         21.16700       31.87600        8.88200
N         20.87000       29.68300        9.29100
H         21.17600       28.88900        9.84300
C         19.85400       29.43100        8.24800
H         19.44000       30.39000        7.92700
C         20.47700       28.73300        7.01500
H         20.60900       27.67700        7.24700
H         19.77300       28.79800        6.18400
C         21.83700       29.29500        6.55800
H         21.71800       30.32800        6.22800
H         22.51200       29.26700        7.40600
C         22.47300       28.45600        5.43900
H         22.52200       27.41400        5.76100
H         21.83700       28.50700        4.55300
C         23.89200       28.91500        5.05700
H         24.27200       28.23900        4.28600
H         23.84400       29.92200        4.63100
N         24.81700       28.91200        6.21600
H         25.79900       28.86100        5.96500
H         24.68200       29.74100        6.79200
H         24.64400       28.13700        6.85100
C         18.70800       28.58600        8.80900
O         18.94600       27.66400        9.58400
N         17.47900       28.84800        8.39800
H         17.30700       29.60800        7.76200
H         16.72500       28.28900        8.76300
H         24.17900       22.81300       12.65100
C         24.81600       23.69300       12.73400
H         25.84300       23.37800       12.91800
H         24.47400       24.31900       13.55700
C         24.76400       24.47400       11.44400
O         25.78200       24.67300       10.79300
N         23.57900       24.96400       11.07800
H         22.78200       24.80600       11.67600
C         23.35400       25.66700        9.79600
H         23.67900       25.00700        8.99200
C         21.86500       25.97300        9.57100
H         21.75400       26.38300        8.56900
C         20.97000       24.74000        9.68000
H         20.95100       24.36500       10.70400
H         19.95300       25.00000        9.38300
H         21.33800       23.95700        9.01600
O         21.40200       26.92400       10.50100
H         20.44100       27.01400       10.35000
C         24.15500       26.96800        9.64200
O         24.26300       27.48300        8.53000
N         24.74300       27.47500       10.73000
H         24.58200       26.98500       11.59500
C         25.57100       28.68100       10.80300
H         25.03900       29.49000       10.33000
C         25.75200       29.04000       12.28300
H         26.37600       28.27400       12.74400
H         26.28800       29.98600       12.35800
S         24.22200       29.17100       13.26200
C         26.92500       28.60300       10.06900
O         27.59600       29.62800        9.93600
N         27.32600       27.42500        9.57800
H         26.74600       26.61300        9.75400
C         28.53000       27.23900        8.74700
H         29.37900       27.66400        9.28300
C         28.81400       25.73500        8.53800
H         27.91600       25.25700        8.14400
C         29.96800       25.46300        7.56400
H         29.70700       25.79700        6.56000
H         30.87400       25.97000        7.89800
H         30.16200       24.39100        7.51400
C         29.18100       25.06800        9.87100
H         28.37200       25.18300       10.59200
H         29.34300       24.00100        9.71800
H         30.08800       25.51200       10.28000
C         28.41000       27.98700        7.40800
O         27.37100       27.97800        6.74800
N         29.47600       28.64200        6.96900
H         30.32300       28.65200        7.51300
H         29.41600       29.13000        6.09100
