114
1 1
H         47.41600       24.34600       57.50100
C         48.24600       24.58000       56.83700
H         47.90900       25.26100       56.05700
H         48.62100       23.66500       56.38400
C         49.34400       25.24600       57.63200
O         49.61400       26.42700       57.44900
N         49.99100       24.49800       58.52100
H         49.77000       23.51600       58.58600
C         50.98600       25.02800       59.47600
H         50.51100       25.82200       60.05300
C         51.42900       23.93800       60.46200
H         52.28600       24.29700       61.03400
C         50.31700       23.55800       61.43800
H         50.00100       24.44100       61.99500
H         49.46200       23.14700       60.90200
H         50.68700       22.81600       62.14600
O         51.78900       22.76600       59.76800
H         52.24600       22.19200       60.39000
C         52.22100       25.66300       58.82700
O         52.81100       26.56200       59.42100
N         52.57300       25.31400       57.58400
H         52.02700       24.59900       57.11600
C         53.63300       25.98100       56.81600
H         54.50700       26.08200       57.46200
C         54.04000       25.11800       55.60400
H         53.17800       24.95600       54.96700
H         54.74400       25.70700       55.01600
S         54.87900       23.53200       55.91800
C         53.24300       27.41200       56.37000
O         54.02200       28.07700       55.68000
N         52.03400       27.89500       56.69800
H         51.38500       27.26000       57.15700
C         51.59100       29.29600       56.54900
H         52.23600       29.82400       55.85100
C         50.14400       29.33600       56.01100
H         49.47500       28.98500       56.79800
H         49.87800       30.37500       55.80900
C         49.85100       28.51000       54.74000
H         50.05500       27.45400       54.91900
H         48.78300       28.59900       54.53400
C         50.60500       28.97000       53.48300
H         50.11800       28.52500       52.61400
H         50.51500       30.05400       53.39200
N         52.03200       28.59400       53.52000
H         52.57000       28.93300       54.30400
C         52.69000       27.80100       52.70000
N         52.14900       27.19400       51.69100
H         52.71700       26.52800       51.18900
H         51.13800       27.14000       51.64100
N         53.94400       27.54900       52.91400
H         54.37900       27.91400       53.75400
H         54.39200       26.84900       52.33900
C         51.70900       30.11400       57.84500
O         51.46100       31.30900       57.82500
N         52.09600       29.52000       58.96500
H         52.17300       30.08200       59.79600
H         52.31800       28.53500       58.97700
H         52.75500       18.58600       50.87900
C         52.00700       18.04000       51.45200
H         52.50000       17.37500       52.15800
H         51.38900       17.45600       50.77000
C         51.13600       19.02100       52.19800
O         51.36200       20.22500       52.12700
N         50.16100       18.50400       52.94500
H         50.04200       17.50100       52.92100
C         49.07100       19.27400       53.57300
H         48.47200       19.71200       52.77400
C         48.17000       18.30700       54.35800
H         48.70100       17.97800       55.25300
H         47.27900       18.84400       54.68700
C         47.73500       17.08600       53.56700
C         48.33300       15.83400       53.81200
H         49.07200       15.72200       54.59300
C         47.95500       14.71200       53.04900
H         48.39800       13.74400       53.23100
C         46.97500       14.83800       52.04300
O         46.61800       13.74900       51.31500
H         45.86700       13.91800       50.74400
C         46.37400       16.09200       51.79900
H         45.62200       16.19100       51.03100
C         46.75600       17.21400       52.56100
H         46.29300       18.17300       52.37500
C         49.51200       20.43600       54.48300
O         48.74700       21.37600       54.68400
N         50.75800       20.43100       54.97300
H         51.34400       19.64400       54.74600
C         51.35500       21.56000       55.69500
H         50.80600       21.70700       56.62600
C         52.80600       21.19800       56.04100
H         52.79500       20.24200       56.56500
H         53.38100       21.06800       55.12300
S         53.68900       22.36900       57.11100
C         51.28700       22.87800       54.90200
O         51.14200       23.94000       55.49800
N         51.34200       22.82400       53.56500
H         51.39800       21.91100       53.12300
C         51.25900       23.99800       52.68700
H         51.99100       24.72900       53.02900
C         51.62200       23.58100       51.24700
H         50.88900       22.84600       50.90900
H         51.53700       24.44800       50.59000
C         53.02900       22.97000       51.07000
H         53.15100       22.12100       51.74100
H         53.10800       22.58900       50.05200
C         54.19000       23.93800       51.29300
O         54.04100       25.14500       51.42800
N         55.40800       23.44700       51.33900
H         55.56900       22.46400       51.20800
H         56.16600       24.09700       51.45100
C         49.88600       24.70900       52.70800
O         49.77900       25.84000       52.23800
N         48.83100       24.10200       53.23800
H         48.91900       23.18500       53.65500
H         47.94800       24.58600       53.24200
