90
0 1
H         -2.93300      -17.83100      136.11300
C         -3.28600      -18.49000      136.90400
H         -4.13800      -19.06900      136.55000
H         -3.57800      -17.89800      137.76900
C         -2.17600      -19.43400      137.29800
O         -2.33100      -20.64500      137.20500
N         -1.06000      -18.88300      137.77200
H         -1.05000      -17.87300      137.86700
C          0.13300      -19.61800      138.22500
H          0.29400      -20.42900      137.51400
C          1.33700      -18.65200      138.13900
H          1.31500      -18.17400      137.15800
H          1.20000      -17.86800      138.88500
C          2.74200      -19.26400      138.32900
H          2.85300      -19.67800      139.32800
C          3.04100      -20.36600      137.30900
H          2.38700      -21.22000      137.48100
H          2.89400      -19.99100      136.29600
H          4.07100      -20.70100      137.42300
C          3.79500      -18.16800      138.15900
H          4.78800      -18.58200      138.33000
H          3.74400      -17.74500      137.15600
H          3.61600      -17.38100      138.89400
C         -0.07000      -20.28200      139.61100
O          0.76100      -20.17400      140.50500
N         -1.22000      -20.92500      139.82700
H         -1.84100      -21.01100      139.02900
C         -1.75600      -21.32100      141.13600
H         -1.62100      -20.47600      141.81000
C         -3.26700      -21.55000      140.99400
H         -3.42400      -22.38500      140.30900
H         -3.66900      -21.84500      141.96400
S         -4.24400      -20.14000      140.40300
C         -1.04800      -22.51800      141.82000
O         -1.69600      -23.36500      142.43300
N          0.28100      -22.60100      141.73600
H          0.75900      -21.83900      141.26700
C          1.09900      -23.56800      142.46700
H          0.70200      -24.56400      142.26800
C          2.53900      -23.48300      141.92500
H          2.52400      -23.69600      140.85500
H          2.88900      -22.45700      142.05500
C          3.55400      -24.42300      142.60400
H          3.58100      -24.22300      143.67400
C          3.21300      -25.89900      142.38200
H          3.98200      -26.52400      142.83400
H          2.25900      -26.14300      142.84500
H          3.16200      -26.11400      141.31400
C          4.95000      -24.16800      142.03500
H          4.96400      -24.37200      140.96400
H          5.23100      -23.12900      142.20700
H          5.67500      -24.81100      142.53400
C          1.02400      -23.30700      143.98400
O          1.15300      -22.17600      144.44100
N          0.84500      -24.34500      144.78800
H          0.79300      -24.17500      145.77900
H          0.70700      -25.26500      144.40400
H         -1.82500      -21.53400      144.50100
C         -1.72800      -20.80000      145.29800
H         -1.02600      -21.16700      146.04400
H         -2.69900      -20.62900      145.75900
C         -1.21200      -19.50100      144.72900
O         -1.90300      -18.49000      144.78500
N         -0.00800      -19.52500      144.16100
H          0.48700      -20.41300      144.17600
C          0.72000      -18.35800      143.63300
H          0.72400      -17.58000      144.39700
H          1.75200      -18.64900      143.44100
C          0.16100      -17.73800      142.34300
O          0.93700      -17.33600      141.48100
N         -1.16600      -17.67100      142.18900
H         -1.72400      -17.95200      142.98900
C         -1.87600      -17.44000      140.92500
H         -1.72800      -18.30800      140.29100
C         -3.37500      -17.33300      141.22600
H         -3.52700      -16.50100      141.91500
H         -3.89700      -17.08900      140.30000
S         -4.17500      -18.79800      141.93600
C         -1.43200      -16.20800      140.10900
O         -1.56800      -16.21900      138.88400
N         -0.91900      -15.15900      140.75400
H         -0.79600      -15.22500      141.75600
C         -0.39200      -13.96000      140.10500
H          0.41000      -14.24800      139.42400
H         -1.18100      -13.48000      139.52700
C          0.16100      -12.95200      141.11600
O         -0.00400      -13.10100      142.32200
N          0.82500      -11.90600      140.64500
H          0.96100      -11.79200      139.65500
H          1.19300      -11.24400      141.30900
