99
0 1
H         22.23200      -29.60900       93.39800
C         22.31400      -29.37400       92.33800
H         21.83900      -30.15600       91.74800
H         23.36300      -29.29200       92.06100
C         21.62600      -28.05800       92.06400
O         22.26300      -27.11500       91.60400
N         20.33000      -27.99300       92.36100
H         19.89200      -28.79700       92.78700
C         19.47300      -26.81000       92.16500
H         20.10800      -25.93000       92.09100
C         18.64200      -26.89700       90.86000
H         18.15900      -25.93000       90.71300
C         19.50400      -27.18500       89.62200
H         20.33800      -26.48700       89.57800
H         19.89400      -28.20200       89.65400
H         18.90200      -27.06300       88.72100
C         17.53400      -27.95900       90.90000
H         17.95800      -28.94500       91.09000
H         16.80700      -27.72700       91.67900
H         17.00200      -27.97600       89.94900
C         18.56200      -26.60600       93.37600
O         18.16400      -27.57900       94.01300
N         18.20300      -25.35600       93.68500
H         18.61400      -24.58200       93.17200
C         17.18700      -25.04200       94.70200
H         17.04000      -25.90500       95.35200
C         17.67500      -23.88100       95.56900
H         17.72100      -23.01000       94.92700
H         16.93200      -23.68900       96.34400
S         19.28200      -24.09700       96.37400
C         15.81400      -24.69100       94.09700
O         14.89100      -24.36400       94.84200
N         15.68700      -24.69300       92.76500
H         16.47100      -25.00800       92.21600
C         14.44500      -24.37800       92.05400
H         13.82700      -23.75100       92.69600
C         14.74000      -23.59900       90.75500
H         15.19700      -24.28400       90.03900
H         13.79000      -23.26900       90.33200
C         15.66700      -22.37200       90.88300
H         16.66200      -22.70100       91.18200
H         15.76300      -21.91100       89.90000
C         15.20300      -21.29600       91.86600
O         14.21600      -21.41300       92.57400
N         15.91800      -20.20200       91.97000
H         16.71000      -20.01900       91.36300
H         15.66500      -19.55500       92.70900
C         13.63000      -25.64400       91.75700
O         14.17400      -26.68000       91.39200
N         12.31100      -25.57100       91.86300
H         11.87500      -24.71600       92.16700
H         11.77300      -26.39800       91.66500
H         20.34600      -17.60300       89.22300
C         19.72200      -17.61400       90.11500
H         18.81200      -17.04500       89.92700
H         20.25800      -17.17000       90.95200
C         19.34700      -19.03700       90.45200
O         18.17300      -19.37500       90.49800
N         20.34500      -19.88200       90.70400
H         21.29000      -19.54300       90.62400
C         20.12700      -21.29600       91.04000
H         19.38700      -21.70300       90.34600
C         21.46000      -22.04000       90.82800
H         21.87900      -21.77700       89.85700
H         22.16500      -21.75000       91.60500
C         21.28500      -23.54900       90.84100
O         20.27200      -24.07400       90.42100
N         22.26600      -24.27900       91.31700
H         22.15200      -25.29300       91.29700
H         23.11400      -23.86800       91.65000
C         19.57000      -21.52000       92.46600
O         19.03500      -22.58800       92.76700
N         19.71500      -20.53300       93.35800
H         20.12200      -19.66000       93.05700
C         19.28700      -20.61200       94.75300
H         18.33700      -21.13200       94.77500
C         20.34000      -21.41200       95.53900
H         20.75500      -22.19000       94.89800
H         21.15700      -20.74100       95.80700
S         19.74500      -22.22700       97.04100
C         19.10600      -19.20900       95.37000
O         19.92100      -18.33700       95.06100
N         18.11600      -18.98500       96.26000
C         17.96600      -17.71700       96.96200
H         18.06400      -16.87200       96.27800
H         18.71900      -17.64900       97.74800
C         16.56900      -17.73300       97.58200
H         15.84600      -17.32600       96.87200
H         16.53700      -17.18000       98.52100
C         16.30800      -19.22400       97.78900
H         15.24100      -19.44600       97.84300
H         16.81100      -19.55900       98.69800
C         16.97900      -19.86300       96.56900
H         17.32000      -20.86100       96.83800
C         15.99700      -19.97100       95.38900
O         15.90900      -19.07500       94.55600
N         15.25200      -21.06400       95.29300
H         14.64300      -21.15700       94.48700
H         15.30700      -21.80400       95.97200
