99
0 1
H         20.81000      -26.45200       84.54500
C         21.50600      -27.09900       85.07500
H         21.91700      -27.83100       84.38200
H         20.99000      -27.60800       85.88700
C         22.63200      -26.27200       85.64500
O         22.87300      -26.29900       86.84600
N         23.33100      -25.53400       84.78500
H         23.05700      -25.56500       83.80700
C         24.49800      -24.70900       85.14700
H         25.09600      -25.27200       85.86500
C         25.39900      -24.44500       83.91700
H         24.86000      -23.82900       83.19600
C         26.70200      -23.73100       84.30600
H         27.31900      -23.57900       83.42000
H         26.49100      -22.75400       84.73800
H         27.25700      -24.32800       85.03000
C         25.80500      -25.75300       83.22000
H         24.92700      -26.25700       82.81800
H         26.47600      -25.53800       82.38900
H         26.30700      -26.41500       83.92700
C         24.05000      -23.42000       85.85000
O         24.02200      -22.34100       85.25800
N         23.62400      -23.53300       87.10700
H         23.55800      -24.46500       87.50200
C         23.12300      -22.40600       87.89400
H         22.35500      -21.90700       87.31600
C         22.46000      -22.92000       89.17200
H         23.20900      -23.45200       89.76200
H         22.12500      -22.06300       89.75600
S         21.03900      -24.01700       88.92300
C         24.22000      -21.37600       88.21500
O         25.22200      -21.71100       88.84500
N         24.02100      -20.11500       87.81600
H         23.17100      -19.90100       87.30000
C         24.94100      -19.00200       88.10400
H         25.28400      -19.11600       89.13400
C         26.20800      -19.07400       87.20900
H         26.68900      -18.09600       87.17300
H         26.91600      -19.74300       87.70100
C         26.04600      -19.58900       85.76800
H         26.99500      -19.47600       85.24400
H         25.82600      -20.65300       85.80100
C         24.97300      -18.86300       84.96900
O         25.00500      -17.65300       84.80500
N         23.98800      -19.56800       84.46000
H         23.92400      -20.55900       84.67000
H         23.22700      -19.07000       84.01400
C         24.23500      -17.63000       88.06200
O         23.03900      -17.51700       87.80700
N         24.94300      -16.55100       88.37100
H         25.92400      -16.63200       88.58000
H         24.48300      -15.65600       88.35200
H         15.20500      -20.37600       86.63600
C         16.00100      -19.70500       86.95700
H         16.36700      -20.01800       87.93400
H         15.62000      -18.68700       87.01000
C         17.12900      -19.77000       85.95600
O         17.05100      -20.51100       84.98400
N         18.18800      -18.99800       86.19500
H         18.18600      -18.43000       87.02600
C         19.39100      -18.97800       85.35500
H         19.07900      -18.98500       84.30800
C         20.15000      -17.66300       85.60100
H         19.50100      -16.81400       85.39300
H         20.46000      -17.62000       86.64600
C         21.38600      -17.53400       84.72300
O         21.50100      -18.11800       83.65600
N         22.36600      -16.79800       85.17600
H         22.37500      -16.59600       86.16500
H         23.25600      -16.86600       84.69300
C         20.26100      -20.23600       85.56600
O         21.33900      -20.17200       86.15600
N         19.76800      -21.37800       85.08400
H         18.83000      -21.34100       84.69600
C         20.41600      -22.69000       85.15000
H         21.45600      -22.57100       85.43900
C         19.70200      -23.53000       86.22500
H         18.66700      -23.66700       85.90800
H         20.15900      -24.52000       86.25100
S         19.66400      -22.88800       87.92400
C         20.39300      -23.38800       83.76800
O         19.62700      -24.33600       83.58400
N         21.17100      -22.93300       82.76200
C         22.04400      -21.76900       82.76300
H         23.04600      -22.07100       83.06100
H         21.68400      -20.96500       83.40000
C         22.08500      -21.29900       81.31300
H         22.98800      -20.72700       81.09900
H         21.19100      -20.71500       81.08800
C         22.05200      -22.62500       80.55600
H         23.05800      -23.05000       80.53500
H         21.66900      -22.50100       79.54200
C         21.12500      -23.49900       81.41100
H         20.10500      -23.39600       81.03900
C         21.53000      -24.98000       81.35500
O         22.41800      -25.43200       82.07100
N         20.91800      -25.75500       80.47200
H         20.18100      -25.38400       79.89600
H         21.17900      -26.72600       80.43000
