99
0 1
H         21.48800      -22.80700       93.29100
C         20.62500      -22.25600       92.92100
H         20.65800      -21.23000       93.28200
H         19.70700      -22.72900       93.26300
C         20.64900      -22.24800       91.41200
O         21.58500      -22.76500       90.81400
N         19.61500      -21.66300       90.80700
H         18.91700      -21.26200       91.42600
C         19.32700      -21.57400       89.35500
H         18.37500      -21.05300       89.26700
C         20.35900      -20.69200       88.61500
H         21.35000      -21.13500       88.70800
C         20.03800      -20.56000       87.11900
H         20.12200      -21.53000       86.62700
H         19.02900      -20.17100       86.98200
H         20.75100      -19.88500       86.64600
C         20.39900      -19.27500       89.20500
H         20.71000      -19.31200       90.24900
H         21.12100      -18.66700       88.65900
H         19.41400      -18.81200       89.13900
C         19.10200      -22.92400       88.65500
O         18.09200      -23.08900       87.97000
N         20.00200      -23.89300       88.83200
H         20.79800      -23.66700       89.42100
C         19.92700      -25.25900       88.30600
H         20.93300      -25.67700       88.35900
C         19.05000      -26.10900       89.24000
H         18.03800      -25.71200       89.23700
H         19.01800      -27.13000       88.86300
S         19.63200      -26.19200       90.95100
C         19.54000      -25.30700       86.80900
O         20.23800      -24.72900       85.98000
N         18.44600      -25.98500       86.44200
H         17.90500      -26.45400       87.15900
C         17.97000      -26.11500       85.05500
H         18.84200      -26.28200       84.42200
C         17.04900      -27.34700       84.91400
H         16.09900      -27.16300       85.41500
H         16.83100      -27.47100       83.85200
C         17.64800      -28.68000       85.40900
H         17.13300      -29.49000       84.89200
H         18.70100      -28.73300       85.13500
C         17.50100      -28.93500       86.91000
O         17.05300      -28.10900       87.68800
N         17.89900      -30.09000       87.39300
H         18.27300      -30.80100       86.79200
H         17.77500      -30.22300       88.38200
C         17.27900      -24.84700       84.49800
O         16.69500      -24.88000       83.42200
N         17.28800      -23.72100       85.20000
H         17.78600      -23.67000       86.07900
H         16.84900      -22.90900       84.80100
H         17.11000      -17.22100       92.50300
C         17.62600      -17.97800       91.91500
H         18.70300      -17.84100       92.00900
H         17.33900      -17.89800       90.86900
C         17.25900      -19.34900       92.43200
O         18.13100      -20.09400       92.86400
N         15.97100      -19.68600       92.37100
H         15.32400      -19.02300       91.98000
C         15.45600      -21.00200       92.76800
H         15.69400      -21.15800       93.82200
C         13.92400      -21.00500       92.60500
H         13.48700      -20.18900       93.17900
H         13.66400      -20.87600       91.55400
C         13.33100      -22.30300       93.12200
O         13.46900      -22.63300       94.28400
N         12.77600      -23.13000       92.27100
H         12.51600      -24.03400       92.62700
H         12.81600      -22.94300       91.27300
C         16.10300      -22.15500       91.97100
O         16.61800      -21.94700       90.87600
N         16.03700      -23.38100       92.49300
H         15.54900      -23.49900       93.37200
C         16.40600      -24.59700       91.77000
H         17.01300      -24.34300       90.90300
C         17.28700      -25.43900       92.70300
H         18.09400      -24.81400       93.08800
H         16.67900      -25.75500       93.55200
S         18.03000      -26.92100       91.97300
C         15.14200      -25.36700       91.31700
O         14.47800      -25.95500       92.17300
N         14.78300      -25.40000       90.01600
C         13.75000      -26.30200       89.52000
H         12.83200      -26.20800       90.10100
H         14.11800      -27.32800       89.56900
C         13.49600      -25.91500       88.06300
H         12.69400      -25.17700       88.01300
H         13.25800      -26.78500       87.45000
C         14.81700      -25.27200       87.64800
H         14.69300      -24.59900       86.79900
H         15.53900      -26.04900       87.40800
C         15.25900      -24.54800       88.92100
H         16.34200      -24.48200       88.92600
C         14.67500      -23.12300       88.95600
O         13.66400      -22.84800       89.60000
N         15.28400      -22.19900       88.22800
H         14.93000      -21.25900       88.25000
H         16.16800      -22.41900       87.79000
