124
2 1
H         -8.53300       47.48400       11.37500
C         -9.48000       47.00400       11.61600
H         -9.46400       45.96800       11.28200
H        -10.29000       47.53300       11.11500
C         -9.70500       47.05100       13.10900
O        -10.69400       47.61500       13.56800
N         -8.79100       46.45600       13.87900
H         -8.00600       46.02400       13.41500
C         -8.81700       46.44400       15.35300
H         -9.85100       46.31400       15.68000
C         -8.00500       45.22300       15.84300
H         -8.22800       44.38200       15.18200
H         -6.93600       45.41900       15.74800
C         -8.32900       44.74000       17.27100
H         -9.38300       44.46300       17.30600
H         -7.74800       43.83600       17.45900
C         -8.05700       45.72800       18.41500
H         -8.70100       46.59800       18.29500
H         -8.32500       45.24500       19.35700
C         -6.58800       46.16700       18.48200
H         -5.95900       45.30900       18.73900
H         -6.28000       46.52400       17.49500
N         -6.41500       47.25800       19.46500
H         -6.53900       46.95000       20.41600
H         -5.51800       47.72700       19.36800
H         -7.08200       48.00700       19.27700
C         -8.30900       47.79100       15.89400
O         -7.10500       47.99100       16.02900
N         -9.21400       48.71600       16.20700
H        -10.19100       48.49700       16.06300
C         -8.87500       50.08500       16.60800
H         -8.24500       50.51200       15.82600
C        -10.15900       50.92600       16.67900
H        -10.87500       50.44900       17.35000
H         -9.91100       51.90200       17.09900
S        -10.94900       51.21700       15.07600
C         -8.08400       50.18000       17.93000
O         -8.18200       49.30700       18.79700
N         -7.36500       51.29900       18.08700
H         -7.36200       51.93900       17.30800
C         -6.65300       51.75500       19.29500
H         -6.25300       52.73700       19.04100
C         -7.64200       51.99300       20.45400
H         -7.81700       51.04200       20.95800
H         -7.18200       52.66200       21.18100
C         -8.98400       52.57600       20.03800
C        -10.14800       51.78400       20.12100
H        -10.09200       50.77900       20.51600
C        -11.38400       52.29600       19.68400
H        -12.28100       51.70000       19.75100
C        -11.45800       53.60100       19.15900
O        -12.64700       54.08400       18.72200
H        -12.54200       54.99000       18.37100
C        -10.29500       54.39600       19.07400
H        -10.35800       55.39800       18.67300
C         -9.06100       53.88400       19.51900
H         -8.17300       54.49900       19.46000
C         -5.43200       50.91600       19.72900
O         -5.30700       49.72900       19.43900
N         -4.50300       51.52000       20.45900
H         -3.69400       50.99000       20.74300
H         -4.59800       52.49000       20.71100
H        -13.72400       59.14000       16.34700
C        -13.19300       58.80800       17.23800
H        -13.40500       59.48100       18.06700
H        -12.12200       58.80700       17.03900
C        -13.63300       57.40800       17.59700
O        -12.81500       56.49300       17.63700
N        -14.93000       57.22900       17.86600
H        -15.53200       58.03700       17.80400
C        -15.53200       55.92400       18.18700
H        -14.88300       55.40400       18.89400
C        -16.89900       56.14100       18.86800
H        -16.78500       56.83100       19.70700
H        -17.58300       56.60000       18.15400
C        -17.47900       54.81500       19.40300
H        -17.09900       53.97200       18.82800
H        -17.12500       54.67600       20.42500
C        -19.01600       54.73600       19.40000
H        -19.29600       53.76400       19.81000
H        -19.41100       55.49800       20.07400
C        -19.70300       54.89200       18.02800
H        -20.73300       54.53600       18.12600
H        -19.74600       55.95400       17.76900
N        -19.01800       54.14900       16.94200
H        -19.61400       53.94000       16.14700
H        -18.21700       54.66100       16.58100
H        -18.64900       53.24900       17.24000
C        -15.67400       55.05400       16.92900
O        -16.58500       55.28100       16.13200
N        -14.86800       54.00300       16.79800
H        -14.12900       53.87900       17.47800
C        -14.98400       53.01000       15.72500
H        -14.92400       53.53500       14.76900
C        -13.79100       52.04300       15.80400
H        -13.74000       51.60600       16.80200
H        -13.95100       51.23000       15.09500
S        -12.19500       52.79900       15.40500
C        -16.32400       52.24000       15.74200
O        -17.02900       52.20800       16.75600
N        -16.63400       51.58600       14.61600
H        -15.99400       51.68600       13.84300
C        -17.74300       50.63300       14.41800
H        -17.65000       50.27800       13.39100
C        -17.54100       49.39300       15.31400
H        -17.93600       49.61500       16.30600
H        -18.12600       48.56400       14.91200
C        -16.09500       48.94000       15.45400
C        -15.38200       48.49000       14.32500
H        -15.87500       48.40900       13.36600
C        -14.02100       48.14800       14.44000
H        -13.46900       47.80800       13.57500
C        -13.37400       48.24100       15.69100
O        -12.05900       47.92900       15.79800
H        -11.68300       47.77600       14.90800
C        -14.08900       48.67900       16.82400
H        -13.58700       48.74000       17.77700
C        -15.44700       49.03300       16.70300
H        -15.99200       49.38000       17.57200
C        -19.17100       51.21600       14.52100
O        -19.39500       52.34500       14.95100
N        -20.17500       50.45600       14.10400
H        -20.00400       49.52900       13.74800
H        -21.11000       50.82800       14.14600
