90
1 1
H         81.50700       87.93200       83.85500
C         80.47400       87.73700       83.57200
H         80.37500       87.81500       82.49000
H         79.81700       88.46400       84.04700
C         80.08400       86.34500       84.00400
O         79.75900       85.50800       83.17200
N         80.13700       86.07800       85.30900
H         80.39900       86.82300       85.93700
C         79.74400       84.78200       85.88600
H         79.76900       84.86000       86.97300
H         78.72100       84.55500       85.58400
C         80.62800       83.59100       85.48200
O         80.19700       82.44800       85.62300
N         81.83400       83.85100       84.96400
H         82.09600       84.82100       84.88200
C         82.75500       82.88000       84.36600
H         82.31100       82.48500       83.46200
C         84.02500       83.62300       83.94200
H         84.50400       84.02100       84.83900
H         84.72000       82.91500       83.49000
S         83.76500       84.99700       82.78000
C         83.06200       81.68700       85.28900
O         83.85000       81.79700       86.22400
N         82.41200       80.55000       85.03200
H         81.73900       80.55000       84.27100
C         82.42800       79.36600       85.90100
H         83.45000       79.18300       86.23700
C         81.55300       79.62900       87.13500
H         81.51400       78.73000       87.75300
H         81.98400       80.43800       87.72600
O         80.24200       79.98600       86.74000
H         80.27300       80.91600       86.43800
C         81.92200       78.11400       85.17100
O         81.12000       78.19000       84.24100
N         82.36200       76.93400       85.58600
H         83.01300       76.87100       86.35200
H         82.02500       76.10600       85.12100
H         78.69300       78.28700       77.74800
C         79.73100       78.60100       77.85700
H         79.89200       79.51900       77.29400
H         80.38600       77.81700       77.48100
C         80.02300       78.84600       79.31800
O         79.14000       78.70200       80.15700
N         81.26400       79.21800       79.62800
H         81.94700       79.27100       78.88900
C         81.70000       79.49100       81.00100
H         81.31600       78.70200       81.65100
C         83.23200       79.43200       81.04800
H         83.57600       78.45300       80.71200
H         83.66400       80.20600       80.41100
H         83.57000       79.58700       82.07400
C         81.17600       80.83300       81.54900
O         80.71200       80.89600       82.68400
N         81.25400       81.91300       80.76800
H         81.63600       81.81300       79.84200
C         80.81700       83.25100       81.18000
H         80.90000       83.35600       82.25900
C         81.74400       84.29800       80.55300
H         81.63300       84.24900       79.46900
H         81.41400       85.29000       80.86600
S         83.51100       84.12800       80.94700
C         79.34000       83.48100       80.82600
O         79.02200       83.92200       79.72300
N         78.43600       83.13200       81.75000
H         78.78900       82.76500       82.62600
C         76.98900       83.39200       81.64700
H         76.88100       84.40300       81.24800
C         76.30400       82.44100       80.62900
H         75.23300       82.39900       80.83100
H         76.40800       82.92100       79.65400
C         76.83800       81.00100       80.44200
H         76.45500       80.64100       79.48600
H         77.92300       81.01000       80.35500
C         76.41400       79.96900       81.49700
H         75.32500       79.96900       81.57100
H         76.71800       78.97700       81.15800
N         76.98600       80.24800       82.82200
H         76.59900       81.03000       83.33000
C         77.98100       79.65000       83.44400
N         78.66600       78.67200       82.93300
H         79.50400       78.37500       83.41800
H         78.57700       78.49000       81.94000
N         78.30500       80.07500       84.62600
H         79.08000       79.66100       85.12700
H         77.88900       80.92100       84.98000
C         76.30700       83.42200       83.01800
O         76.73500       82.75400       83.95600
N         75.22100       84.16500       83.14600
H         74.88100       84.70300       82.36600
H         74.76200       84.19400       84.04200
