90
1 1
H         69.95100       90.69900       86.21100
C         70.60600       90.10800       86.85100
H         70.11900       89.94700       87.81100
H         71.54400       90.64000       86.99800
C         70.87300       88.77700       86.19300
O         70.38000       88.51900       85.09900
N         71.67700       87.93400       86.84400
H         72.03000       88.22000       87.74400
C         71.94000       86.55300       86.40600
H         72.64200       86.09200       87.10100
H         71.00900       85.98600       86.43900
C         72.52600       86.41800       84.99300
O         72.26200       85.42600       84.32300
N         73.24500       87.43600       84.50300
H         73.41600       88.22000       85.11100
C         73.71400       87.55200       83.11300
H         74.15700       88.54200       83.02200
C         74.83900       86.53600       82.85200
H         74.56200       85.57000       83.27500
H         74.95900       86.38600       81.78200
S         76.44600       87.02500       83.51700
C         72.61200       87.51200       82.02700
O         72.93600       87.39500       80.84300
N         71.33100       87.60600       82.40100
H         71.14300       87.76000       83.38400
C         70.17700       87.32900       81.53300
H         70.30500       86.32700       81.12400
C         68.88600       87.30800       82.36600
H         68.04000       87.10600       81.70600
H         68.94500       86.50700       83.10500
O         68.67100       88.53900       83.03200
H         69.20500       88.54700       83.85100
C         70.07600       88.28700       80.33600
O         70.32100       87.88300       79.19900
N         69.77100       89.55800       80.55300
H         69.52900       89.84000       81.49300
H         69.67700       90.18600       79.77300
H         78.24700       88.45700       73.61800
C         77.70000       88.85600       74.47100
H         76.83500       89.41400       74.11500
H         78.34500       89.51800       75.04600
C         77.23200       87.72000       75.34700
O         76.03800       87.58200       75.59500
N         78.17200       86.91300       75.84100
H         79.13000       87.08400       75.57700
C         77.89000       85.72700       76.66200
H         77.25700       85.05000       76.08500
C         79.22000       85.01600       76.93800
H         79.88400       85.66300       77.51300
H         79.03500       84.10400       77.50900
H         79.70200       84.74500       75.99800
C         77.14300       86.03700       77.98000
O         76.38500       85.20000       78.46800
N         77.28700       87.25800       78.50000
H         77.87000       87.91200       77.99900
C         76.57900       87.79200       79.66300
H         75.76900       87.12000       79.94500
C         77.58100       87.89500       80.82300
H         77.97400       86.90200       81.04500
H         78.41600       88.51400       80.49100
S         76.95800       88.62500       82.36300
C         75.97500       89.16300       79.31300
O         76.62200       89.95500       78.62700
N         74.74800       89.45300       79.76800
H         74.24900       88.73800       80.28900
C         74.10000       90.77300       79.65200
H         74.78100       91.47100       79.16200
C         72.80300       90.69400       78.82200
H         72.16400       89.92100       79.24400
H         72.27500       91.64100       78.94500
C         72.95400       90.47100       77.30300
H         71.97800       90.64100       76.84600
H         73.63800       91.22100       76.90300
C         73.43600       89.08200       76.86200
H         73.37900       89.02100       75.77300
H         74.48300       88.97100       77.14300
N         72.63200       87.99700       77.45500
H         71.75500       88.24300       77.89900
C         72.99700       86.74100       77.61400
N         74.09400       86.26300       77.10900
H         74.66200       86.86000       76.51500
H         74.47800       85.39500       77.44300
N         72.24900       85.94500       78.31200
H         72.52900       85.00100       78.48600
H         71.45400       86.36100       78.78300
C         73.79800       91.33900       81.04300
O         73.39300       90.61200       81.94300
N         73.94700       92.64000       81.22600
H         73.74200       93.01800       82.13600
H         74.27900       93.22400       80.47800
