113
2 1
H        128.13600       -2.03400      113.32900
C        128.20200       -2.87800      112.64500
H        129.23400       -3.01200      112.32200
H        127.58000       -2.68100      111.77200
C        127.71700       -4.14000      113.33100
O        126.83900       -4.80900      112.78600
N        128.24500       -4.49100      114.52000
C        129.38500       -3.86100      115.17300
H        129.03500       -3.05900      115.82500
H        130.10800       -3.47300      114.45500
C        130.03000       -4.96700      116.00600
H        130.56900       -4.56500      116.86500
H        130.69300       -5.56200      115.37700
C        128.82600       -5.80700      116.43000
H        128.35900       -5.34700      117.30300
H        129.11300       -6.83600      116.65300
C        127.89100       -5.73200      115.21500
H        128.11300       -6.57100      114.55300
C        126.41500       -5.81600      115.63100
O        125.76800       -6.83300      115.38600
N        125.86500       -4.74100      116.20300
H        126.44900       -3.93000      116.33500
C        124.52400       -4.70200      116.79900
H        124.47100       -5.48400      117.55600
C        124.34100       -3.34800      117.49700
H        124.42700       -2.55600      116.75100
H        123.33400       -3.28700      117.90200
S        125.52200       -3.00800      118.83300
C        123.37700       -4.96500      115.80400
O        123.48600       -4.64000      114.61700
N        122.26600       -5.53800      116.28800
H        122.27300       -5.77900      117.27800
C        121.04900       -5.85100      115.51700
H        121.03200       -5.22700      114.62500
C        121.05000       -7.33800      115.09000
H        121.05000       -7.95400      115.99200
H        120.12700       -7.55100      114.54700
C        122.24200       -7.77900      114.22000
H        123.16500       -7.56000      114.75400
H        122.19800       -8.86200      114.09300
C        122.25900       -7.13200      112.82000
H        121.51400       -7.63000      112.19800
H        121.98400       -6.08000      112.88300
C        123.62800       -7.22400      112.13100
H        123.93700       -8.27100      112.06200
H        123.52400       -6.83100      111.11500
N        124.64100       -6.43000      112.86400
H        124.25800       -5.53700      113.16800
H        124.93200       -6.88500      113.72700
H        125.47800       -6.21600      112.33000
C        119.78200       -5.51300      116.31500
O        119.52300       -6.06500      117.38500
N        118.95100       -4.62800      115.79100
H        119.19400       -4.15200      114.93700
H        118.11400       -4.38700      116.29300
H        125.65100       -9.98400      118.39600
C        125.58100       -8.89800      118.45300
H        125.79400       -8.47600      117.47200
H        126.30100       -8.51900      119.17600
C        124.18600       -8.50100      118.86800
O        123.52600       -7.73900      118.17300
N        123.73400       -9.00500      120.01700
H        124.33000       -9.63700      120.53000
C        122.38500       -8.73200      120.54100
H        121.70900       -8.75000      119.68600
C        121.94500       -9.84400      121.51400
H        122.79000      -10.12100      122.14700
H        121.15300       -9.47800      122.16900
C        121.41700      -11.09700      120.79000
H        122.13800      -11.42000      120.03900
H        121.32500      -11.89700      121.52600
C        120.04800      -10.91300      120.12300
O        119.49900       -9.82400      119.99800
N        119.44000      -11.97900      119.65500
H        118.53600      -11.85100      119.23600
H        119.85000      -12.89200      119.75400
C        122.19000       -7.32900      121.15000
O        121.06100       -6.97900      121.49500
N        123.21900       -6.47800      121.21000
H        124.11200       -6.78700      120.86000
C        123.00700       -5.03100      121.33800
H        122.48300       -4.83700      122.27600
C        124.37100       -4.32500      121.39500
H        124.21900       -3.24700      121.45800
H        124.86500       -4.63300      122.31800
S        125.52200       -4.66800      120.02900
C        122.12100       -4.53700      120.17800
O        122.22600       -5.05000      119.06700
N        121.19900       -3.59100      120.41500
H        121.11400       -3.21300      121.34700
C        120.24000       -3.16400      119.37200
H        120.09400       -3.99500      118.68400
C        118.85500       -2.82800      119.96500
H        118.94800       -2.40800      120.96800
H        118.38400       -2.07300      119.33200
C        117.91400       -4.05200      119.97500
H        116.88900       -3.69800      120.08700
H        117.97300       -4.54600      119.00500
C        118.18700       -5.06600      121.10000
H        119.23800       -5.06300      121.38000
H        117.61700       -4.75800      121.97900
C        117.77500       -6.49700      120.71900
H        117.66200       -7.07200      121.64300
H        116.80700       -6.47900      120.21000
N        118.80500       -7.15000      119.87500
H        119.70400       -7.09500      120.34400
H        118.64000       -8.14900      119.75900
H        118.91000       -6.71700      118.96100
C        120.77800       -2.05700      118.45900
O        120.61400       -2.14300      117.25200
N        121.46800       -1.06100      118.99400
H        121.81400       -0.34200      118.38000
H        121.59100       -1.00500      119.99000
