113
2 1
H        130.14600      -13.01000      120.19100
C        129.06100      -12.92700      120.21700
H        128.63800      -13.89000      120.50200
H        128.68800      -12.64700      119.23400
C        128.65800      -11.88200      121.24100
O        128.07000      -12.24800      122.25800
N        128.94000      -10.58500      121.00700
C        129.76500      -10.06800      119.92300
H        129.13600       -9.84300      119.06000
H        130.55600      -10.76400      119.64000
C        130.38300       -8.78200      120.46700
H        130.62400       -8.07800      119.66900
H        131.27200       -9.02000      121.05400
C        129.28400       -8.24900      121.38500
H        128.54600       -7.71300      120.78500
H        129.68900       -7.59700      122.15900
C        128.67100       -9.52300      121.98200
H        129.20300       -9.76300      122.90400
C        127.18200       -9.33500      122.31600
O        126.82800       -9.24500      123.49200
N        126.30000       -9.33700      121.31000
H        126.65200       -9.47600      120.37600
C        124.86700       -9.05000      121.47400
H        124.78100       -8.04700      121.89500
C        124.19100       -9.02700      120.09300
H        124.65700       -8.24100      119.49800
H        124.36500       -9.98000      119.59100
S        122.40100       -8.71600      120.11500
C        124.15200      -10.01200      122.44600
O        124.47800      -11.20000      122.52300
N        123.16000       -9.48800      123.17800
H        122.92900       -8.51500      123.01500
C        122.22800      -10.21400      124.05800
H        122.21300      -11.26700      123.77800
C        122.64400      -10.07200      125.54100
H        122.55400       -9.02100      125.82200
H        121.94700      -10.63700      126.16200
C        124.07800      -10.52500      125.87700
H        124.77500       -9.96500      125.25600
H        124.29200      -10.26100      126.91400
C        124.30300      -12.04000      125.71100
H        123.85300      -12.55400      126.56200
H        123.81000      -12.40100      124.80900
C        125.79000      -12.41300      125.62900
H        126.31200      -12.04100      126.51500
H        125.86700      -13.50400      125.62100
N        126.40400      -11.86700      124.39600
H        126.54600      -10.86100      124.44900
H        127.28900      -12.29600      124.14300
H        125.78800      -11.99500      123.59500
C        120.81500       -9.66500      123.83100
O        120.65900       -8.51300      123.43900
N        119.78700      -10.46300      124.06400
H        118.86500      -10.11500      123.83600
H        119.92600      -11.40100      124.39500
H        120.91100       -7.71800      113.76700
C        120.06700       -7.71200      113.07900
H        120.38100       -8.09700      112.11000
H        119.70100       -6.69300      112.96200
C        118.96300       -8.57900      113.63100
O        117.85800       -8.09900      113.88400
N        119.24900       -9.86400      113.83400
H        120.19900      -10.17400      113.66700
C        118.31100      -10.79800      114.46800
H        117.31100      -10.53300      114.12300
C        118.54000      -12.24900      113.98200
H        117.64500      -12.81500      114.24300
H        118.59300      -12.23700      112.89200
C        119.74300      -13.05500      114.51100
H        119.66300      -13.17400      115.59100
H        119.69800      -14.05500      114.07800
C        121.09900      -12.43800      114.18400
O        121.47600      -11.41200      114.72500
N        121.87600      -13.01500      113.29600
H        122.76600      -12.58100      113.11900
H        121.59900      -13.86400      112.83400
C        118.29700      -10.62300      115.99800
O        117.23200      -10.37200      116.56400
N        119.46600      -10.66900      116.64600
H        120.30400      -10.78700      116.08500
C        119.64300      -10.52400      118.09400
H        118.99300      -11.24500      118.59100
C        121.09700      -10.87700      118.44300
H        121.25600      -11.93300      118.22100
H        121.76500      -10.29700      117.80400
S        121.57200      -10.58100      120.17000
C        119.25500       -9.12000      118.59400
O        119.58800       -8.11900      117.96000
N        118.53700       -9.05800      119.72700
H        118.34500       -9.92500      120.21100
C        118.01100       -7.83600      120.36700
H        118.69300       -7.00800      120.16500
C        116.60900       -7.48600      119.81500
H        115.92900       -8.31500      120.02000
H        116.23400       -6.59900      120.32800
C        116.62400       -7.20900      118.30500
H        117.29700       -6.37500      118.10000
H        117.00400       -8.09200      117.80400
C        115.24700       -6.90500      117.70300
H        114.53500       -7.68900      117.97000
H        114.88700       -5.95200      118.09400
C        115.38500       -6.81300      116.17600
H        114.46200       -6.40700      115.75100
H        116.19300       -6.11000      115.95200
N        115.69300       -8.13200      115.56400
H        116.18900       -8.00700      114.68100
H        116.33200       -8.67000      116.14700
H        114.86400       -8.68700      115.41800
C        117.94200       -8.02900      121.88600
O        117.77500       -9.14800      122.36200
N        118.03100       -6.95400      122.65100
H        118.02300       -7.08100      123.64900
H        118.17700       -6.04800      122.24100
