113
2 1
H        126.97100       -1.18400      115.32800
C        127.17600       -1.79600      114.45200
H        128.25000       -1.94100      114.34700
H        126.79800       -1.29200      113.56300
C        126.49300       -3.14300      114.59300
O        125.61800       -3.45400      113.78500
N        126.85000       -3.95900      115.60200
C        127.86100       -3.68500      116.61600
H        127.72100       -2.70300      117.07000
H        128.85300       -3.75300      116.16500
C        127.69800       -4.78000      117.67000
H        126.95800       -4.47300      118.41000
H        128.64600       -5.01800      118.15300
C        127.16200       -5.96000      116.85800
H        126.59400       -6.65300      117.48000
H        127.99800       -6.48000      116.38600
C        126.29700       -5.30400      115.77300
H        126.41100       -5.86800      114.84600
C        124.80700       -5.29900      116.15000
O        124.03400       -6.08200      115.59700
N        124.37700       -4.39200      117.03000
H        125.05400       -3.75600      117.42200
C        123.02500       -4.37400      117.59800
H        122.83600       -5.36200      118.01500
C        122.98100       -3.36400      118.75000
H        123.11500       -2.36000      118.34300
H        121.99700       -3.40000      119.20800
S        124.23700       -3.62800      120.03300
C        121.91200       -4.09200      116.57100
O        122.13200       -3.39600      115.57600
N        120.70900       -4.62900      116.81400
H        120.63100       -5.23600      117.62900
C        119.51600       -4.51900      115.95100
H        119.61600       -3.63300      115.32600
C        119.39100       -5.77100      115.04900
H        119.26800       -6.64500      115.69200
H        118.49000       -5.68500      114.43800
C        120.58300       -6.04000      114.10900
H        121.48700       -6.12700      114.70800
H        120.43000       -7.00400      113.62200
C        120.76000       -4.97000      113.01300
H        120.00200       -5.13000      112.24400
H        120.60700       -3.97300      113.42400
C        122.14800       -5.00300      112.35700
H        122.33600       -5.99600      111.93700
H        122.15400       -4.28000      111.53500
N        123.20200       -4.64500      113.33400
H        122.91300       -3.86100      113.91500
H        123.38100       -5.40300      113.99000
H        124.09100       -4.38400      112.91600
C        118.23700       -4.31600      116.77700
O        118.18400       -4.60400      117.97000
N        117.18100       -3.82100      116.15000
H        117.23300       -3.59300      115.17200
H        116.32900       -3.68900      116.67000
H        122.77600       -8.30700      117.06900
C        122.30900       -8.97000      117.79700
H        123.06800       -9.34300      118.48300
H        121.84300       -9.80600      117.27700
C        121.26000       -8.20600      118.56600
O        121.05300       -7.02400      118.31900
N        120.60400       -8.86200      119.52300
H        120.82800       -9.83300      119.67700
C        119.52700       -8.25800      120.32700
H        118.91900       -7.67600      119.63600
C        118.63000       -9.35700      120.93500
H        119.25700      -10.18800      121.26500
H        118.10500       -8.98000      121.81300
C        117.57000       -9.88100      119.94900
H        118.04000      -10.14600      119.00200
H        117.14100      -10.79100      120.37100
C        116.42200       -8.89900      119.68200
O        116.49900       -7.69700      119.91100
N        115.30800       -9.37000      119.17000
H        114.55500       -8.71900      119.02900
H        115.19800      -10.35300      118.99000
C        119.98300       -7.22800      121.38300
O        119.14700       -6.71200      122.12700
N        121.26200       -6.84300      121.41900
H        121.89600       -7.23500      120.74200
C        121.71500       -5.67700      122.18200
H        121.41400       -5.82200      123.22200
C        123.25000       -5.62900      122.16100
H        123.59600       -4.76800      122.73700
H        123.60900       -6.51800      122.68200
S        124.06700       -5.59700      120.54100
C        121.04100       -4.36800      121.70900
O        120.35700       -4.32700      120.68100
N        121.18300       -3.29900      122.50200
H        121.80900       -3.37600      123.29400
C        120.52500       -1.99000      122.33400
H        120.30000       -1.82500      121.28100
C        119.21700       -1.94500      123.16000
H        119.47600       -2.06900      124.21400
H        118.76100       -0.95900      123.05400
C        118.15600       -3.00700      122.80800
H        118.59700       -4.00000      122.87700
H        117.36500       -2.95600      123.55700
C        117.51300       -2.80700      121.42400
H        116.90000       -1.90500      121.45600
H        118.27800       -2.67200      120.65900
C        116.62200       -3.99800      121.04500
H        116.00300       -4.27100      121.90500
H        115.95800       -3.69300      120.23100
N        117.42900       -5.15900      120.60200
H        117.96900       -4.93000      119.76900
H        118.08700       -5.45400      121.31900
H        116.85700       -5.97200      120.37700
C        121.48500       -0.87400      122.77300
O        122.48800       -1.14400      123.41900
N        121.19700        0.37200      122.43700
H        121.82700        1.09800      122.74200
H        120.36100        0.58600      121.92200
