88
0 1
H         12.87600       12.03900       51.95200
C         12.83200       13.09500       51.69400
H         12.39700       13.21400       50.70200
H         13.83500       13.51500       51.70500
C         11.97200       13.82100       52.70000
O         11.03900       14.52000       52.32500
N         12.28700       13.66700       53.98400
H         13.05500       13.03500       54.19600
C         11.51200       14.18800       55.11900
H         10.46900       13.89800       54.98800
H         11.88000       13.72200       56.03400
C         11.55500       15.71100       55.31100
O         11.89500       16.18100       56.39700
N         11.25300       16.51000       54.28300
H         11.00000       16.05100       53.41100
C         11.29700       17.98400       54.27800
H         12.24600       18.29100       54.71900
C         11.29200       18.49300       52.82900
H         10.37000       18.16500       52.34800
H         11.27600       19.58500       52.85100
S         12.69200       18.00000       51.78400
C         10.20200       18.66700       55.13700
O          9.60300       19.66700       54.74700
N          9.91800       18.12300       56.32100
H         10.42000       17.28000       56.55800
C          9.01700       18.69700       57.33500
H          9.09000       19.78400       57.29000
C          7.55400       18.31400       57.06000
H          7.40600       17.25700       57.28500
H          6.90300       18.90200       57.70800
O          7.19900       18.54600       55.71000
H          7.80600       19.20700       55.33900
C          9.39200       18.29000       58.77000
O          8.75200       18.71500       59.72100
N         10.42400       17.47600       58.97900
H         10.63200       17.22200       59.93100
H         10.96300       17.10700       58.21100
H         17.09800       14.31300       59.60900
C         16.01800       14.22400       59.72400
H         15.71700       14.59100       60.70300
H         15.72800       13.18000       59.62000
C         15.33900       15.03500       58.64700
O         14.68400       14.47800       57.77100
N         15.50300       16.35600       58.69000
H         16.09400       16.75100       59.40300
C         14.92300       17.24500       57.68100
H         13.84700       17.07500       57.67600
C         15.15200       18.71200       58.05800
H         14.76500       18.88600       59.06300
H         16.22400       18.91600       58.07300
C         14.47100       19.67300       57.10400
C         15.19600       20.24100       56.03900
H         16.24600       20.00800       55.91300
C         14.55700       21.10300       55.12900
H         15.11300       21.53200       54.30900
C         13.18300       21.39000       55.27700
O         12.55100       22.19600       54.38700
H         13.12900       22.48000       53.67800
C         12.45800       20.82600       56.34700
H         11.41000       21.06800       56.45200
C         13.10100       19.96700       57.25900
H         12.54400       19.54100       58.08200
C         15.46000       16.92000       56.27600
O         16.66300       16.73700       56.09000
N         14.55100       16.78000       55.30700
H         13.58800       16.92200       55.57700
C         14.79400       16.29000       53.94000
H         13.82100       16.06500       53.51100
C         15.40100       17.39800       53.06700
H         16.31300       17.76000       53.54200
H         15.68600       16.96300       52.10700
S         14.32500       18.81200       52.70100
C         15.56800       14.95500       53.83300
O         16.02100       14.59200       52.75000
N         15.71600       14.20200       54.92600
H         15.27400       14.49900       55.78900
C         16.47800       12.94800       54.94900
H         17.33600       13.04800       54.28300
C         17.01800       12.70100       56.35800
H         16.19100       12.60500       57.06100
H         17.59500       11.77600       56.37200
O         17.86200       13.77500       56.73700
H         17.43900       14.61300       56.49900
C         15.64300       11.76000       54.45700
O         14.41600       11.76700       54.51900
N         16.28700       10.70800       53.97100
H         15.74200        9.92700       53.64200
H         17.29100       10.71300       53.90300
