88
0 1
H          4.97600       21.28800       67.36700
C          4.43500       20.37200       67.13600
H          3.78900       20.53700       66.27500
H          3.83100       20.06900       67.98900
C          5.41600       19.27200       66.80800
O          5.37800       18.72400       65.71400
N          6.31400       18.97000       67.74800
H          6.25900       19.46700       68.62300
C          7.24100       17.82900       67.66700
H          7.85500       17.81500       68.56700
H          6.66300       16.90600       67.63900
C          8.19000       17.82400       66.46000
O          8.67000       16.76100       66.07500
N          8.41100       18.97700       65.82300
H          7.95000       19.80500       66.15700
C          9.13100       19.05700       64.55600
H          8.71000       18.29700       63.91700
C          8.87000       20.40600       63.88500
H          9.23700       21.19400       64.54200
H          9.44200       20.45100       62.95700
S          7.13200       20.74500       63.48400
C         10.63300       18.75000       64.67400
O         11.28300       19.12900       65.64700
N         11.18400       18.08100       63.65800
H         10.58800       17.84000       62.87000
C         12.57700       17.62300       63.60600
H         13.21300       18.37900       64.06800
C         12.70800       16.33100       64.42200
H         12.34200       16.51000       65.43500
H         12.10300       15.54800       63.96200
O         14.05700       15.91000       64.48900
H         14.11200       15.17200       65.10400
C         13.05600       17.41800       62.16000
O         12.26300       17.26000       61.23500
N         14.36100       17.41700       61.92800
H         14.99900       17.46800       62.70600
H         14.68300       17.27900       60.98500
H         12.55700       15.94900       58.59000
C         11.69700       16.06000       57.93100
H         11.89100       15.56600       56.98000
H         11.49700       17.11700       57.76700
C         10.49200       15.42400       58.58200
O          9.88600       14.52400       58.01300
N         10.14900       15.89300       59.77800
H         10.73000       16.61500       60.19100
C          9.05400       15.37000       60.59800
H          8.29200       14.93700       59.94900
C          9.61100       14.26100       61.50700
H          9.96000       13.43700       60.88300
H         10.47800       14.65100       62.04400
C          8.62100       13.72100       62.52300
C          8.59600       14.24200       63.83200
H          9.29300       15.01600       64.12700
C          7.64800       13.77300       64.76100
H          7.62500       14.17400       65.76300
C          6.72500       12.77600       64.38400
O          5.81700       12.31800       65.28600
H          5.36200       11.54100       64.95900
C          6.74800       12.25600       63.07200
H          6.03500       11.50100       62.77600
C          7.69400       12.73100       62.14300
H          7.70900       12.33800       61.13500
C          8.39400       16.47800       61.43300
O          9.06700       17.42300       61.83400
N          7.10600       16.30800       61.74900
H          6.64700       15.48800       61.37700
C          6.36400       16.98700       62.81800
H          7.03400       17.23200       63.63800
C          5.69400       18.27300       62.30600
H          5.07300       18.00200       61.45200
H          5.02600       18.64800       63.08300
S          6.75200       19.66000       61.79100
C          5.30200       16.01900       63.37100
O          4.77400       15.18900       62.62600
N          4.95400       16.12700       64.65500
H          5.33500       16.90000       65.19400
C          3.99300       15.24600       65.33700
H          4.11400       14.24400       64.92800
C          4.32300       15.15900       66.83400
H          3.71500       14.37600       67.28900
H          5.37400       14.89800       66.95900
O          4.05800       16.38500       67.48600
H          3.11100       16.55200       67.35900
C          2.53100       15.64900       65.07200
O          1.75700       15.90800       65.99000
N          2.13400       15.75100       63.81100
H          1.18600       16.03100       63.62200
H          2.79000       15.54100       63.07000
