88
0 1
H         19.60600       14.38800       51.86000
C         18.95100       13.52800       51.98600
H         19.40400       12.65500       51.52100
H         17.98800       13.73300       51.52000
C         18.74700       13.26600       53.45800
O         17.61400       13.23000       53.92300
N         19.83500       13.05400       54.19300
H         20.72300       13.00700       53.70600
C         19.83600       12.79800       55.64300
H         20.81500       13.04900       56.05100
H         19.09400       13.43700       56.12300
C         19.52400       11.34200       56.00500
O         20.25500       10.73300       56.77800
N         18.51400       10.74200       55.36800
H         17.89800       11.33300       54.82300
C         18.33900        9.28500       55.29100
H         18.71100        8.84100       56.21600
C         16.84400        8.96300       55.19500
H         16.72300        7.88000       55.26100
H         16.35000        9.39300       56.06300
S         15.98800        9.52600       53.69600
C         19.15000        8.65400       54.13900
O         19.13000        7.44100       53.94800
N         19.86000        9.47600       53.36000
H         19.85200       10.45800       53.59200
C         20.78300        9.07800       52.29400
H         21.35900        8.21700       52.63300
C         19.99200        8.67600       51.04400
H         19.18900        7.98900       51.31700
H         19.55300        9.56600       50.58900
O         20.84300        8.03600       50.11300
H         20.74000        7.08400       50.22000
C         21.75900       10.22800       51.98900
O         21.56400       11.35700       52.44000
N         22.81800        9.97700       51.23300
H         23.45700       10.72800       51.03200
H         22.91700        9.06900       50.80700
H         19.67100       10.31600       60.54200
C         19.26900        9.46400       59.99800
H         19.42700        8.55300       60.57300
H         19.76600        9.37600       59.03300
C         17.78700        9.65900       59.78200
O         16.98800        8.83500       60.20500
N         17.41900       10.74800       59.11300
H         18.13900       11.36400       58.76400
C         16.02900       11.10700       58.80900
H         15.43500       10.19200       58.77100
C         15.45000       12.00500       59.91800
H         14.36400       11.99900       59.82800
H         15.69100       11.57800       60.89300
C         15.93000       13.44700       59.86900
C         17.20900       13.78400       60.35500
H         17.82600       13.02900       60.82100
C         17.70100       15.09500       60.19900
H         18.69300       15.35700       60.53600
C         16.90800       16.07400       59.56700
O         17.41700       17.30900       59.32200
H         17.11400       17.64200       58.46500
C         15.60600       15.75100       59.13200
H         14.99600       16.51400       58.67400
C         15.12100       14.43800       59.27500
H         14.13500       14.18900       58.90600
C         15.95000       11.78900       57.43700
O         16.87100       12.50400       57.04400
N         14.86900       11.56500       56.68500
H         14.13000       10.97900       57.03700
C         14.72100       12.15000       55.35100
H         15.66900       12.05500       54.82700
C         13.68100       11.37000       54.53900
H         12.70600       11.46600       55.02000
H         13.60700       11.83500       53.55500
S         14.03500        9.60400       54.29000
C         14.39700       13.65000       55.44800
O         13.24900       14.03600       55.66300
N         15.41800       14.49600       55.30700
H         16.32600       14.08500       55.10600
C         15.37600       15.93400       55.60600
H         14.73000       16.05900       56.47400
C         16.77700       16.41000       56.01500
H         17.18800       15.73000       56.76200
H         17.43400       16.40800       55.14300
O         16.70600       17.71500       56.56000
H         16.40200       18.29000       55.83900
C         14.75600       16.80100       54.49400
O         15.24100       17.88800       54.18900
N         13.69500       16.33900       53.84800
H         13.28900       16.90200       53.12000
H         13.27500       15.47100       54.15000
