88
0 1
H         16.77000       18.25900       55.28200
C         16.47400       17.38400       55.85700
H         15.38900       17.36200       55.95600
H         16.90900       17.42400       56.85100
C         16.95300       16.13900       55.14800
O         18.04300       15.64500       55.43500
N         16.13800       15.63400       54.22300
H         15.23600       16.07200       54.11600
C         16.40000       14.42600       53.43100
H         15.70600       14.38600       52.59100
H         17.41700       14.46400       53.03700
C         16.24200       13.14400       54.24800
O         15.29300       12.38900       54.05500
N         17.13800       12.92500       55.21000
H         17.85900       13.62800       55.32400
C         17.13100       11.80000       56.14900
H         16.84700       10.90300       55.59700
C         18.55600       11.58600       56.68400
H         18.84100       12.43800       57.29800
H         18.54100       10.70800       57.33200
S         19.82500       11.31200       55.40900
C         16.08600       11.98700       57.27200
O         16.37600       11.79100       58.45100
N         14.88000       12.43000       56.90900
H         14.72300       12.57200       55.91700
C         13.84100       12.92700       57.82400
H         14.32500       13.26200       58.73700
C         13.14400       14.14600       57.20500
H         12.53200       13.82500       56.36100
H         12.50000       14.61600       57.95000
O         14.10300       15.08600       56.75000
H         14.65600       15.34000       57.51800
C         12.81300       11.87300       58.26200
O         11.82300       12.20000       58.90400
N         13.00200       10.60300       57.92700
H         12.31900        9.92500       58.22300
H         13.82400       10.34000       57.41100
H         15.76000       13.25000       60.81800
C         15.59600       14.32600       60.86500
H         15.95300       14.71000       61.81800
H         14.53200       14.54000       60.76500
C         16.34900       14.99000       59.73700
O         15.73800       15.54500       58.82800
N         17.67600       14.93400       59.80200
H         18.09400       14.41400       60.56000
C         18.59200       15.55400       58.84200
H         18.12500       15.53600       57.85900
C         18.83000       17.02400       59.23300
H         17.95700       17.61600       58.95800
H         18.93000       17.08100       60.31800
C         20.06800       17.63900       58.60700
C         21.15500       17.99100       59.42800
H         21.07400       17.91300       60.50400
C         22.35900       18.43100       58.85200
H         23.19200       18.70300       59.48100
C         22.48500       18.50400       57.44800
O         23.68100       18.81200       56.88900
H         24.40700       18.47100       57.43500
C         21.38200       18.19500       56.62800
H         21.48700       18.26800       55.55500
C         20.17100       17.77300       57.20800
H         19.33500       17.52200       56.57200
C         19.90700       14.76200       58.74400
O         20.42200       14.28600       59.75500
N         20.45900       14.63500       57.53200
H         19.98900       15.07700       56.75200
C         21.56000       13.71300       57.21400
H         21.25800       12.71800       57.54000
C         21.75300       13.66400       55.69300
H         22.08300       14.64500       55.34900
H         22.55000       12.95200       55.47200
S         20.29900       13.17800       54.72600
C         22.91600       13.97800       57.90400
O         23.80400       13.13700       57.80400
N         23.09800       15.09700       58.61500
H         22.35600       15.78300       58.63200
C         24.26100       15.30300       59.49700
H         24.62100       14.31600       59.78900
C         25.43000       15.97400       58.75200
H         26.35700       15.73800       59.27700
H         25.50000       15.56900       57.74100
O         25.29800       17.38100       58.69500
H         25.38700       17.68400       59.61300
C         23.88400       15.98900       60.82000
O         24.61500       16.82900       61.33700
N         22.71100       15.69000       61.36600
H         22.46200       16.12900       62.23700
H         22.09800       15.02000       60.92000
