107
-1 1
H         32.31200       40.92700        7.11300
C         31.72100       40.65600        6.24100
H         31.76600       39.58100        6.07700
H         32.09600       41.16800        5.35700
C         30.28200       41.04900        6.47300
O         29.43200       40.18900        6.66300
N         30.01600       42.35400        6.45700
H         30.76800       42.98800        6.24300
C         28.64900       42.89500        6.40100
H         27.99900       42.22900        6.96200
C         28.53000       44.30200        7.02400
H         27.55900       44.71100        6.74800
C         28.56700       44.23600        8.55200
H         29.50900       43.80400        8.88900
H         28.45700       45.23800        8.96600
H         27.73400       43.62600        8.89900
C         29.60100       45.29600        6.54800
H         29.38200       46.28400        6.95400
H         30.59000       44.98600        6.88100
H         29.58700       45.36500        5.46000
C         28.12800       42.94200        4.96500
O         28.88100       43.26700        4.04700
N         26.82900       42.70500        4.78000
H         26.29000       42.38100        5.58300
C         26.10000       43.19400        3.60500
H         26.78000       43.26400        2.75500
C         24.98300       42.21800        3.23000
H         24.34400       42.04700        4.09800
H         24.37500       42.69300        2.46100
S         25.52500       40.61900        2.56900
C         25.53500       44.60500        3.85200
O         25.65100       45.47700        2.99400
N         24.95700       44.83500        5.03700
H         24.80100       44.02900        5.64100
C         24.48400       46.13300        5.54300
H         24.91100       46.93200        4.93600
C         22.93600       46.22400        5.45800
H         22.50700       45.45600        6.10500
C         22.44200       47.58700        5.98200
H         22.88200       48.39400        5.39400
H         21.35500       47.64100        5.91600
H         22.71500       47.71900        7.02900
C         22.38600       46.03000        4.02200
H         21.53400       46.68900        3.85400
H         23.14600       46.29900        3.28900
C         21.89300       44.60000        3.75900
H         21.06400       44.36800        4.42700
H         21.55100       44.51900        2.72700
H         22.69200       43.88100        3.92500
C         24.97400       46.34800        6.98700
O         25.37200       47.44600        7.36200
N         24.99400       45.31200        7.81600
H         25.33200       45.44700        8.75200
H         24.65500       44.40800        7.49900
H         28.84900       41.30600        9.09600
C         28.56900       41.08900       10.12400
H         28.18200       41.98300       10.60800
H         29.43400       40.72000       10.67000
C         27.49800       40.03000       10.11700
O         27.70800       38.94500       10.64200
N         26.35300       40.33600        9.51700
H         26.30500       41.19600        8.97600
C         25.27200       39.36600        9.30100
H         25.15900       38.77700       10.21300
C         23.93200       40.09700        9.05300
H         23.14200       39.38200        9.28700
H         23.83700       40.90900        9.77500
C         23.61500       40.65100        7.64600
H         23.67000       39.83900        6.91900
H         22.57600       40.98800        7.65700
C         24.50300       41.81500        7.17800
O         25.74600       41.70500        7.22700
O         23.97200       42.84800        6.72400
C         25.62400       38.37400        8.18100
O         25.37100       37.17600        8.30000
N         26.28700       38.85700        7.12800
H         26.43300       39.86300        7.08900
C         26.77900       38.05100        6.01200
H         26.01900       37.30000        5.79300
C         26.88200       38.94500        4.77100
H         27.40800       39.86600        5.02200
H         27.44800       38.42300        3.99900
S         25.23500       39.32800        4.11200
C         28.05200       37.23500        6.32800
O         28.57300       36.54800        5.45000
N         28.50000       37.22200        7.59100
H         28.05300       37.84500        8.24800
C         29.39200       36.18700        8.13200
H         30.17800       35.98100        7.40500
C         30.03200       36.68800        9.44100
H         29.23500       36.86200       10.16500
H         30.66500       35.89400        9.84000
C         30.87800       37.96800        9.32000
H         30.27600       38.77700        8.91200
C         31.37100       38.39000       10.70600
H         30.51200       38.55000       11.35800
H         32.00400       37.61300       11.13200
H         31.93200       39.32000       10.62900
C         32.10800       37.76000        8.43300
H         32.71400       38.66400        8.42500
H         32.70300       36.92600        8.80600
H         31.79000       37.54700        7.41300
C         28.66500       34.84900        8.38400
O         29.30600       33.82100        8.57600
N         27.33600       34.82100        8.40800
H         26.80400       35.67200        8.28000
H         26.87900       33.94200        8.57100
