107
-1 1
H         27.50700       35.17600       12.10300
C         26.57000       34.86300       11.64700
H         25.94600       34.36300       12.38600
H         26.77900       34.18800       10.81900
C         25.84000       36.07600       11.12100
O         24.73000       36.36100       11.55500
N         26.46300       36.78100       10.18000
H         27.36400       36.42800        9.86500
C         25.88000       37.92300        9.45400
H         24.82400       37.70700        9.29400
C         25.96200       39.21200       10.30300
H         25.52300       39.00300       11.27900
C         27.39000       39.72500       10.54000
H         28.01600       38.91500       10.91100
H         27.82000       40.11400        9.61700
H         27.37300       40.52100       11.28300
C         25.14700       40.34800        9.67500
H         25.56900       40.63700        8.71200
H         24.11800       40.01900        9.52800
H         25.14700       41.21100       10.34000
C         26.50500       38.10200        8.06500
O         25.77800       38.29500        7.09300
N         27.82900       37.96900        7.93100
H         28.37600       37.71500        8.75000
C         28.52000       38.03300        6.63700
H         28.11700       38.87400        6.07100
C         30.00500       38.30300        6.88200
H         30.38100       37.55800        7.57800
H         30.54200       38.19600        5.93800
S         30.33700       39.96200        7.53200
C         28.30600       36.78000        5.76700
O         28.54200       36.82700        4.56300
N         27.82800       35.67700        6.35100
H         27.81600       35.65600        7.37000
C         27.31600       34.49300        5.64500
H         28.07100       34.20300        4.91500
C         27.15000       33.34400        6.67300
H         28.07400       33.28100        7.25100
C         26.00800       33.62200        7.67100
H         26.00200       32.85500        8.44500
H         26.15400       34.58800        8.15500
H         25.04400       33.61800        7.16200
C         26.91600       31.94900        6.05300
H         26.81900       31.22400        6.86300
H         25.98300       31.93700        5.49000
C         28.05700       31.47500        5.14500
H         27.86800       30.44600        4.83700
H         28.11700       32.09700        4.25200
H         29.00400       31.51400        5.68500
C         26.01900       34.77300        4.85300
O         25.62400       33.99000        3.99700
N         25.32800       35.88200        5.09800
H         24.50100       36.05900        4.55600
H         25.65400       36.54700        5.78500
H         30.94100       33.44400        4.77700
C         31.06800       33.98200        5.71400
H         30.31100       33.65300        6.42200
H         30.96900       35.05000        5.53000
C         32.44800       33.68900        6.26700
O         33.23900       33.03400        5.60600
N         32.79600       34.15300        7.46400
H         33.74000       33.94200        7.75500
C         31.97300       34.91200        8.41300
H         31.22300       35.47700        7.86300
C         31.24800       33.92800        9.35600
H         30.60800       33.28100        8.75600
H         31.98600       33.29500        9.85300
C         30.38000       34.59400       10.43200
H         29.75400       33.83600       10.90500
H         31.03100       35.00900       11.20000
C         29.50100       35.69900        9.84800
O         29.72400       36.88900       10.15600
O         28.62700       35.39500        9.01600
C         32.83700       35.92000        9.19600
O         33.89200       35.56600        9.71800
N         32.38000       37.17000        9.31000
H         31.42800       37.36200        9.02400
C         33.07100       38.23300       10.04100
H         34.11900       38.25400        9.73800
C         32.42400       39.57800        9.69300
H         31.41100       39.59400       10.09800
H         32.99000       40.36400       10.19600
S         32.33600       39.99500        7.93000
C         33.01700       38.02600       11.56300
O         33.93800       38.41500       12.27600
N         31.94100       37.40600       12.05800
H         31.19100       37.17800       11.40800
C         31.78100       36.98300       13.45400
H         32.25000       37.73000       14.09500
C         30.27600       36.92700       13.79100
H         29.81000       36.16900       13.16000
H         30.16000       36.61100       14.82900
C         29.52000       38.25800       13.60000
H         29.62400       38.59700       12.57100
C         28.03100       38.05800       13.88800
H         27.62400       37.31700       13.20100
H         27.88700       37.71900       14.91300
H         27.49500       38.99400       13.73500
C         30.03300       39.36100       14.52900
H         29.42600       40.25800       14.40400
H         29.98200       39.03000       15.56600
H         31.06300       39.61000       14.27600
C         32.50200       35.65400       13.78100
O         32.34600       35.11400       14.87100
N         33.28500       35.08700       12.87000
H         33.43300       35.53000       11.97400
H         33.74600       34.22500       13.10400
