107
-1 1
H         31.84000       44.07300       14.92800
C         32.25700       44.59300       15.78900
H         33.30600       44.33700       15.91400
H         31.69200       44.31700       16.67700
C         32.12600       46.08100       15.57000
O         33.13500       46.77400       15.48500
N         30.88900       46.56700       15.48400
H         30.13200       45.88500       15.54500
C         30.55800       47.99500       15.28100
H         31.49000       48.55400       15.20400
C         29.79400       48.22900       13.96000
H         29.67700       49.30500       13.82900
C         30.58800       47.71800       12.75200
H         30.07900       47.99600       11.83000
H         31.58200       48.16500       12.75600
H         30.69000       46.63400       12.79700
C         28.38700       47.61200       13.95000
H         27.79200       48.02000       14.76600
H         27.89000       47.84800       13.00900
H         28.45700       46.53200       14.06100
C         29.79700       48.63800       16.44500
O         29.68800       49.86200       16.48700
N         29.25400       47.85000       17.37600
H         29.31500       46.84300       17.24100
C         28.45200       48.35400       18.49800
H         28.83400       49.33400       18.78700
C         27.01000       48.53400       18.00600
H         26.43800       49.00800       18.80400
H         27.01300       49.21100       17.15200
S         26.15600       47.00500       17.53500
C         28.49400       47.47800       19.76600
O         28.27900       47.99800       20.85900
N         28.78100       46.17700       19.64600
H         28.86500       45.80200       18.70500
C         28.87300       45.22900       20.77200
H         29.27500       45.77200       21.62900
C         27.45100       44.74100       21.15200
H         26.83400       45.62900       21.29600
C         26.80400       43.90000       20.03500
H         27.34100       42.96100       19.90100
H         25.76500       43.68500       20.27800
H         26.81600       44.45400       19.09700
C         27.46100       43.96800       22.48900
H         27.89200       42.97700       22.34400
H         28.08600       44.50900       23.20100
C         26.07100       43.81300       23.12000
H         25.61000       44.79300       23.25100
H         25.43400       43.19100       22.49100
H         26.17000       43.33500       24.09500
C         29.84800       44.06300       20.51000
O         30.34200       43.44000       21.44300
N         30.18500       43.75700       19.26400
H         30.83600       43.00700       19.11400
H         29.77200       44.25700       18.48400
H         28.31000       46.23000       11.21000
C         28.40100       45.15000       11.29000
H         29.27200       44.89500       11.89400
H         28.50600       44.71300       10.30000
C         27.15100       44.60000       11.92900
O         26.09100       44.63200       11.32200
N         27.25600       44.09800       13.15200
H         28.16100       44.13900       13.62000
C         26.18700       43.36700       13.84100
H         25.85500       42.57300       13.17100
C         26.75100       42.67700       15.10200
H         25.97100       42.00700       15.46700
H         27.59300       42.04600       14.81500
C         27.17100       43.56600       16.29000
H         26.36300       44.26200       16.51500
H         27.27700       42.91100       17.15700
C         28.49400       44.33900       16.13100
O         28.87800       45.06400       17.07500
O         29.15600       44.25900       15.07600
C         24.93300       44.21600       14.12600
O         23.82000       43.70200       14.02800
N         25.07500       45.52600       14.36900
H         26.00900       45.89800       14.44700
C         23.92900       46.44200       14.47700
H         23.17800       45.95900       15.10400
C         24.33600       47.74400       15.18700
H         25.31800       48.07300       14.84800
H         23.61700       48.51700       14.91400
S         24.30500       47.63800       16.99700
C         23.21000       46.72800       13.13800
O         22.20400       47.43300       13.13800
N         23.68400       46.19300       12.00400
H         24.52200       45.62300       12.04700
C         22.95700       46.21100       10.72600
H         22.34200       47.11200       10.68400
C         23.95200       46.26000        9.54800
H         24.45600       45.29600        9.48300
H         23.38300       46.38800        8.62500
C         25.01900       47.37100        9.62500
H         25.60600       47.26400       10.53700
C         25.97400       47.25300        8.43700
H         26.74500       48.02000        8.50600
H         26.45300       46.27300        8.45700
H         25.42700       47.36800        7.50200
C         24.39900       48.77000        9.60400
H         23.78700       48.89500        8.71100
H         23.77900       48.91200       10.48900
H         25.18800       49.52200        9.61300
C         21.98300       45.02300       10.57800
O         21.22900       44.95400        9.61300
N         21.97300       44.06700       11.50100
H         22.60000       44.11500       12.29300
H         21.33200       43.30200       11.39100
