85
0 1
H         89.93400       24.47700       42.35500
C         90.42700       23.72700       42.97000
H         89.78000       22.85900       43.07600
H         90.64500       24.14600       43.95200
C         91.72200       23.31500       42.31100
O         92.78600       23.46100       42.89900
N         91.63600       22.76700       41.10000
H         90.71000       22.57500       40.74200
C         92.78500       22.31700       40.29700
H         92.47300       22.19400       39.25900
H         93.57100       23.07100       40.33500
C         93.36700       20.98800       40.78500
O         93.35300       20.00300       40.05500
N         93.77700       20.92700       42.05600
H         93.75800       21.79200       42.59000
C         94.01100       19.66700       42.77600
H         94.64500       19.03500       42.15300
C         94.76100       19.99500       44.08300
H         95.68100       20.52300       43.82600
H         94.14200       20.67300       44.67400
C         95.12700       18.78600       44.97000
H         94.22000       18.28900       45.31100
C         96.01200       17.77000       44.24200
H         96.31100       16.97800       44.92800
H         95.46300       17.31700       43.41800
H         96.90500       18.26100       43.85400
C         95.88600       19.27400       46.20400
H         96.81400       19.76400       45.90700
H         95.26800       19.98000       46.75900
H         96.11700       18.43000       46.85400
C         92.69800       18.89300       43.02600
O         92.73000       17.68800       43.26700
N         91.55300       19.57500       42.93300
H         91.61900       20.54700       42.67600
C         90.20400       19.02300       43.04800
H         90.24000       17.94900       42.90300
C         89.64200       19.31300       44.44600
H         89.59000       20.39500       44.56900
H         88.62400       18.92500       44.50200
S         90.56800       18.64500       45.85500
C         89.27800       19.60000       41.96600
O         89.45400       20.73000       41.51300
N         88.25900       18.85300       41.56400
H         88.13000       17.92800       41.96000
H         87.64000       19.21400       40.85800
H         87.32500       13.39900       42.71900
C         87.14800       14.26100       43.36000
H         86.91000       13.93000       44.36900
H         86.31900       14.84700       42.96400
C         88.38800       15.12200       43.39800
O         88.33600       16.28500       43.01000
N         89.49700       14.53900       43.85000
H         89.45700       13.56300       44.10200
C         90.79400       15.20400       43.99800
H         90.81800       16.08300       43.36400
C         90.99600       15.63800       45.45900
H         90.99300       14.73900       46.07800
H         91.98100       16.09400       45.56000
S         89.78500       16.78700       46.16600
C         91.95300       14.29400       43.56700
O         91.90400       13.08000       43.76600
N         93.03800       14.88900       43.06400
H         93.01300       15.90000       42.95800
C         94.28700       14.19300       42.71900
H         94.06400       13.38300       42.02300
H         94.95800       14.89600       42.22600
C         95.03100       13.59200       43.92100
O         95.96700       12.82300       43.74200
N         94.59600       13.90300       45.14500
H         93.82500       14.54700       45.22100
C         95.04300       13.26900       46.39600
H         96.12900       13.17800       46.37700
C         94.64900       14.14600       47.59800
H         95.00400       13.68000       48.51700
C         95.22900       15.55800       47.51900
H         95.01300       16.08600       48.44800
H         96.30900       15.50600       47.38400
H         94.78100       16.10700       46.69200
O         93.24500       14.27600       47.65500
H         92.90700       13.49900       48.11200
C         94.47800       11.85500       46.60700
O         94.76300       11.22800       47.61800
N         93.63700       11.33500       45.71900
H         93.35900       11.86600       44.90600
H         93.29000       10.40400       45.87700
