85
0 1
H         93.37400       14.77900       51.31100
C         94.28100       14.18100       51.39100
H         94.06700       13.27400       51.95200
H         95.05700       14.75100       51.89700
C         94.75000       13.80500       50.00500
O         94.05000       14.05300       49.03000
N         95.93800       13.20800       49.92200
H         96.45600       13.07000       50.77500
C         96.56300       12.76300       48.67000
H         97.41200       12.11900       48.90000
H         95.84100       12.18500       48.09200
C         97.06400       13.92100       47.80500
O         98.26400       14.16200       47.73000
N         96.14200       14.64600       47.17000
H         95.17300       14.43900       47.38700
C         96.42800       15.90000       46.47100
H         97.42300       15.84600       46.02900
C         95.39500       16.12300       45.34900
H         94.40400       16.16500       45.80100
H         95.59100       17.08900       44.88400
C         95.38900       15.04200       44.25100
H         95.23800       14.06000       44.70000
C         94.23600       15.29900       43.28200
H         94.23000       14.53700       42.50300
H         93.29000       15.25200       43.82000
H         94.34400       16.28300       42.82300
C         96.69300       15.02300       43.45000
H         96.88300       16.00600       43.01900
H         97.52400       14.74100       44.09400
H         96.62100       14.28900       42.64800
C         96.42100       17.06700       47.46700
O         95.49600       17.18100       48.27300
N         97.42000       17.94500       47.38800
H         98.11900       17.82400       46.67100
C         97.54100       19.14300       48.22000
H         96.55800       19.42500       48.58600
C         98.46500       18.86100       49.41500
H         99.45300       18.62200       49.01800
H         98.56400       19.77600       50.00000
S         98.00100       17.52200       50.55600
C         98.06600       20.33100       47.39900
O         98.78300       20.15800       46.41800
N         97.75800       21.55200       47.81300
H         97.18300       21.66600       48.63800
H         98.09800       22.33900       47.28700
H         93.96700       22.99700       51.45700
C         94.97900       22.69900       51.72400
H         95.06700       22.61300       52.80600
H         95.68700       23.44200       51.35900
C         95.29200       21.36500       51.09000
O         96.22100       21.27100       50.29700
N         94.49900       20.35200       51.43000
H         93.71100       20.54900       52.02800
C         94.60200       18.98000       50.92400
H         95.18000       18.98100       50.00600
C         95.33800       18.09900       51.93900
H         94.85000       18.20900       52.90800
H         95.24300       17.05800       51.63400
S         97.10500       18.43900       52.14600
C         93.21800       18.40400       50.57800
O         92.19500       18.94900       50.98800
N         93.19000       17.31700       49.80300
H         94.08100       16.94200       49.49000
C         91.99900       16.85800       49.08000
H         92.11100       15.80000       48.84700
H         91.11300       16.98600       49.70300
C         91.77900       17.61400       47.76100
O         90.67600       17.60200       47.22000
N         92.80400       18.30500       47.24700
H         93.71000       18.21100       47.69300
C         92.71500       19.24900       46.11700
H         91.76600       19.77900       46.20000
C         93.83000       20.31000       46.19400
H         93.68200       21.03100       45.39000
C         93.84700       21.06900       47.52100
H         94.59300       21.86300       47.47100
H         92.86800       21.51100       47.70700
H         94.10400       20.39900       48.33900
O         95.09200       19.71100       46.03700
H         95.11900       19.39900       45.12200
C         92.69700       18.54200       44.75100
O         93.53600       18.78500       43.88900
N         91.76800       17.62100       44.53700
H         91.09600       17.41900       45.26700
H         91.75200       17.14400       43.65100
