96
1 1
H         13.13400        9.07600      128.27600
C         13.17700       10.16500      128.30200
H         13.92100       10.48000      129.03200
H         12.19900       10.55500      128.57900
C         13.55500       10.67500      126.93200
O         13.75700        9.89100      126.01300
N         13.67700       11.99900      126.79000
H         13.49300       12.57500      127.59900
C         13.94800       12.66700      125.50000
H         13.20200       12.30000      124.79500
C         13.75900       14.19300      125.67800
H         12.74400       14.37900      126.03200
H         14.44800       14.53900      126.45100
C         13.99500       15.06000      124.42200
H         13.83600       16.10500      124.69000
H         15.03900       14.97200      124.12800
C         13.07200       14.72200      123.23400
H         12.89500       13.64900      123.17000
H         12.10800       15.20700      123.39600
C         13.64500       15.18200      121.88800
H         12.85900       15.09700      121.13100
H         13.94600       16.23100      121.94900
N         14.78900       14.33900      121.47500
H         14.58300       13.35300      121.62100
H         15.00800       14.46000      120.49100
H         15.63100       14.54100      122.01200
C         15.30700       12.31000      124.86800
O         15.48600       12.54300      123.67400
N         16.24400       11.72000      125.61700
H         16.02400       11.53100      126.57900
C         17.59800       11.42300      125.13700
H         18.19100       11.08900      125.98900
C         17.51000       10.22600      124.16500
H         17.16800        9.35700      124.73000
H         16.73200       10.43200      123.43700
S         18.99700        9.73400      123.25200
C         18.28100       12.72500      124.64600
O         18.39300       13.66400      125.43100
N         18.73400       12.81500      123.39300
H         18.61900       12.02300      122.78400
C         19.38900       14.00800      122.85400
H         20.20400       14.27500      123.52800
C         20.00100       13.65500      121.49200
H         19.21400       13.39300      120.78500
H         20.55100       14.51300      121.10300
H         20.68800       12.81500      121.59800
C         18.44500       15.22800      122.76300
O         17.24400       15.10800      122.52300
N         18.98000       16.43200      122.91200
H         19.96200       16.53100      123.11000
H         18.37800       17.23600      122.85000
H         13.70900        7.25800      117.25800
C         13.53300        7.03600      118.31000
H         14.33500        6.40300      118.68600
H         12.58000        6.52000      118.41300
C         13.49300        8.32800      119.09000
O         13.65800        9.40000      118.51700
N         13.30500        8.23000      120.40700
H         13.17500        7.31000      120.79900
C         13.10800        9.38200      121.29700
H         12.18400        9.88400      121.00600
C         12.93600        8.85700      122.72800
H         12.73500        9.69100      123.40200
H         12.09600        8.16300      122.77600
H         13.84300        8.35100      123.06100
C         14.23400       10.43500      121.23000
O         13.96500       11.62600      121.38700
N         15.47100       10.02000      120.92600
H         15.62300        9.02900      120.82100
C         16.61300       10.91600      120.72000
H         16.78800       11.47700      121.63600
C         17.86200       10.07500      120.41900
H         17.73000        9.60100      119.44500
H         18.72600       10.73800      120.34300
S         18.24500        8.76500      121.62200
C         16.36200       11.95800      119.61600
O         16.78100       13.10200      119.77000
N         15.60100       11.61600      118.56900
H         15.23400       10.67100      118.52700
C         14.98400       12.61000      117.67700
H         15.66100       13.45800      117.56100
C         14.72300       12.03600      116.26800
H         14.05700       11.17700      116.34500
C         14.07000       13.07400      115.34600
H         14.70300       13.95900      115.26900
H         13.93200       12.64900      114.35100
H         13.09100       13.36500      115.72700
C         16.03000       11.57500      115.61000
H         16.48400       10.77200      116.19100
H         15.82600       11.19700      114.60800
H         16.73000       12.40900      115.54100
C         13.71000       13.14200      118.34000
O         13.66900       14.28100      118.79300
N         12.69500       12.30600      118.51400
H         11.86400       12.64100      118.97100
H         12.78000       11.34400      118.21600
