96
1 1
H         15.74000        5.98700      118.37900
C         14.85000        6.01100      117.75000
H         14.47900        4.99600      117.61600
H         15.10200        6.44200      116.78300
C         13.79100        6.85000      118.42500
O         14.02300        7.37200      119.50700
N         12.63500        7.00100      117.76700
H         12.57000        6.52900      116.87700
C         11.40200        7.66200      118.26200
H         10.82500        7.90200      117.36600
C         10.51200        6.66200      119.04000
H          9.56000        7.14200      119.27100
H         10.27500        5.84300      118.35800
C         11.07800        6.02100      120.32500
H         10.35700        5.28100      120.67600
H         11.99100        5.48100      120.07900
C         11.37500        6.97800      121.48900
H         11.81300        6.40200      122.30500
H         12.11300        7.71200      121.17200
C         10.11800        7.69300      122.00100
H          9.57300        8.11300      121.15100
H          9.47500        6.96000      122.49600
N         10.47700        8.78300      122.93400
H          9.66800        9.20100      123.36400
H         11.11200        8.43900      123.65200
H         10.98700        9.52300      122.44900
C         11.56000        9.05200      118.91600
O         10.68300        9.48600      119.65800
N         12.64800        9.76800      118.62200
H         13.37800        9.30100      118.11100
C         12.85800       11.16600      119.02700
H         12.78300       11.23200      120.11100
C         14.28100       11.56400      118.60800
H         14.99200       10.88300      119.07900
H         14.36600       11.44100      117.52700
S         14.79300       13.26000      118.99300
C         11.79800       12.11900      118.42900
O         11.45500       13.13400      119.02800
N         11.23600       11.74600      117.27700
H         11.54700       10.88100      116.86300
C         10.05100       12.33300      116.66300
H          9.44200       12.81000      117.43300
C         10.49500       13.40200      115.65500
H         11.10000       12.94900      114.86800
H          9.62300       13.87900      115.20700
H         11.08500       14.16600      116.16600
C          9.21200       11.21300      116.01300
O          9.66400       10.07300      115.89700
N          7.99100       11.50800      115.58700
H          7.63100       12.44300      115.68100
H          7.44600       10.77700      115.15800
H         19.02000       12.12300      123.24600
C         18.73300       12.96500      123.87500
H         18.63900       13.86000      123.26100
H         19.49300       13.11900      124.63900
C         17.41000       12.66000      124.53500
O         16.83300       11.60500      124.30100
N         16.90400       13.59800      125.33600
H         17.44300       14.43700      125.48200
C         15.68700       13.42000      126.14100
H         15.85700       12.60200      126.84300
C         15.46400       14.70300      126.95000
H         14.59200       14.58000      127.59500
H         16.33400       14.90700      127.57600
H         15.29100       15.54800      126.28100
C         14.42700       13.05200      125.32400
O         13.52600       12.40100      125.84400
N         14.38400       13.40100      124.03300
H         15.16500       13.91100      123.65500
C         13.32900       12.98300      123.10500
H         12.36600       13.32400      123.48900
C         13.59100       13.66500      121.76000
H         12.78500       13.38700      121.08200
H         13.54700       14.74800      121.88300
S         15.17500       13.22400      120.99100
C         13.24100       11.45200      122.91700
O         12.16900       10.93200      122.59800
N         14.33700       10.71000      123.12000
H         15.19700       11.18000      123.38800
C         14.34100        9.23900      123.10600
H         13.74400        8.89600      122.26200
C         15.76500        8.67600      122.91400
H         16.38500        8.96400      123.76300
C         15.75200        7.14500      122.82700
H         16.76600        6.77600      122.66600
H         15.37800        6.71100      123.75400
H         15.12200        6.82100      121.99700
C         16.41300        9.21800      121.63200
H         15.79400        8.97600      120.76800
H         16.53900       10.29800      121.69800
H         17.39900        8.77100      121.50100
C         13.69200        8.70500      124.38700
O         12.73100        7.94100      124.32700
N         14.12200        9.16500      125.55400
H         13.66800        8.85800      126.39800
H         14.86300        9.84900      125.58100
