96
1 1
H          0.51400       10.21100      123.56300
C          1.09000        9.95700      124.45200
H          1.39700        8.91400      124.39800
H          0.47700       10.12000      125.33700
C          2.31200       10.84300      124.51300
O          2.51700       11.67500      123.63900
N          3.14100       10.66600      125.54600
H          2.89500        9.95400      126.21500
C          4.37400       11.44500      125.77000
H          4.14400       12.49600      125.57900
C          4.79700       11.31000      127.24700
H          3.93900       11.51000      127.89100
H          5.10500       10.27900      127.41900
C          5.92500       12.29500      127.62800
H          6.58900       12.46700      126.78200
H          5.47400       13.25700      127.87200
C          6.78300       11.83500      128.82100
H          7.54900       12.59100      129.00500
H          6.15000       11.78100      129.70800
C          7.47000       10.47100      128.62600
H          8.10400       10.27100      129.49500
H          6.70400        9.69300      128.58900
N          8.29000       10.41000      127.39400
H          9.09700       11.03000      127.42800
H          8.67900        9.48300      127.24700
H          7.75800       10.64300      126.55600
C          5.49700       11.05500      124.78600
O          6.49600       10.46300      125.19600
N          5.33900       11.40300      123.51200
H          4.45400       11.83800      123.26000
C          6.30800       11.21300      122.43000
H          7.31400       11.12700      122.84200
C          5.97400        9.93000      121.65500
H          4.88900        9.85800      121.56400
H          6.36700       10.01900      120.64100
S          6.60000        8.36700      122.32700
C          6.27900       12.41400      121.46900
O          5.21100       12.92000      121.14400
N          7.44700       12.84100      120.98200
H          8.29300       12.37100      121.26600
C          7.60000       13.88300      119.96200
H          6.83700       13.73900      119.19500
C          7.39800       15.27000      120.59600
H          8.16500       15.46200      121.34500
H          7.45800       16.03900      119.82500
H          6.41500       15.32900      121.06400
C          8.98400       13.78200      119.29300
O          9.92400       13.24100      119.87200
N          9.13900       14.31100      118.08700
H         10.04400       14.25300      117.64900
H          8.36500       14.76200      117.62500
H         12.09700       11.35400      119.85900
C         12.90600       11.49400      120.57400
H         13.42600       12.42500      120.35500
H         13.60600       10.66200      120.50500
C         12.34100       11.55600      121.97100
O         12.69800       10.75000      122.82400
N         11.40900       12.47800      122.20600
H         11.10700       13.04300      121.41800
C         10.82000       12.76800      123.52200
H         11.64600       12.92700      124.21600
C         10.04100       14.08500      123.42700
H         10.67400       14.86600      123.00400
H          9.16100       13.95100      122.80300
H          9.72200       14.39600      124.42300
C          9.96500       11.62700      124.12800
O          9.31600       11.81200      125.15800
N          9.97500       10.43500      123.52300
H         10.55500       10.34000      122.70100
C          9.49500        9.20400      124.14800
H          8.45900        9.33600      124.44700
C          9.54200        8.06400      123.12900
H         10.57600        7.91300      122.81400
H          9.21100        7.14900      123.62200
S          8.52300        8.28700      121.64500
C         10.30100        8.83500      125.41000
O          9.73500        8.25200      126.33500
N         11.57600        9.23900      125.49900
H         11.98100        9.72300      124.70500
C         12.42700        9.06500      126.69400
H         12.47000        7.99800      126.91500
C         13.87500        9.53600      126.43200
H         14.46100        9.32600      127.32800
C         14.51900        8.75200      125.28300
H         15.57100        9.02500      125.19900
H         14.45200        7.68200      125.47800
H         14.02700        8.97700      124.33600
C         13.98500       11.04100      126.15100
H         13.41900       11.30700      125.26000
H         13.60900       11.61500      126.99700
H         15.03000       11.30700      125.99300
C         11.86200        9.75600      127.94900
O         11.00900       10.64000      127.88100
N         12.32000        9.36100      129.12900
H         11.97500        9.81800      129.95700
H         13.01800        8.63700      129.18900
