94
-1 1
H        -15.64300       39.84200       95.97800
C        -15.11500       39.77200       96.92800
H        -14.81100       40.76700       97.24800
H        -14.23500       39.14400       96.81600
C        -16.02800       39.17500       97.97700
O        -16.43900       39.87500       98.89000
N        -16.40600       37.90500       97.87900
H        -17.03900       37.57500       98.60000
C        -16.35000       37.06800       96.66900
H        -15.34100       37.07700       96.25700
C        -16.71900       35.60700       97.00700
H        -16.69500       35.02400       96.08500
H        -15.94900       35.20500       97.66800
C        -18.08300       35.40500       97.69000
O        -18.62500       34.28500       97.60300
O        -18.60300       36.35100       98.32600
C        -17.30400       37.61900       95.59600
O        -16.90300       37.82100       94.45400
N        -18.52900       37.95800       96.00300
H        -18.79500       37.63400       96.93000
C        -19.52700       38.67400       95.21000
H        -19.06700       39.01800       94.28300
C        -20.63700       37.68400       94.84500
H        -21.30500       38.16100       94.12800
H        -20.18200       36.82100       94.35700
S        -21.63500       37.09500       96.23900
C        -20.07600       39.92300       95.92700
O        -20.58800       40.82400       95.26700
N        -19.94600       40.01200       97.25800
H        -19.54500       39.23000       97.75300
C        -20.38400       41.17600       98.04200
H        -21.34800       41.50600       97.65200
C        -20.58100       40.72700       99.50100
H        -21.33200       39.93600       99.52000
H        -19.63700       40.30900       99.85200
C        -21.00400       41.81700      100.50200
H        -21.08500       41.36000      101.48900
H        -20.23400       42.58500      100.56100
C        -22.34400       42.47000      100.17200
O        -23.38200       42.13200      100.71200
N        -22.38200       43.43300       99.27800
H        -23.28400       43.81900       99.07500
H        -21.53500       43.71300       98.79200
C        -19.41600       42.37200       97.94200
O        -19.84300       43.52200       98.00100
N        -18.11600       42.14500       97.80500
H        -17.75700       41.20200       97.85700
H        -17.49600       42.93400       97.74200
H        -17.55700       34.46300      101.29100
C        -18.02700       33.59200      100.83900
H        -17.81200       32.70600      101.43200
H        -17.65200       33.45500       99.82800
C        -19.52300       33.79800      100.78800
O        -20.27300       32.87600      101.08600
N        -19.96000       34.99600      100.40800
H        -19.29000       35.63200       99.98800
C        -21.37500       35.38300      100.33400
H        -21.86800       35.10100      101.26500
C        -21.46900       36.90800      100.17100
H        -20.98900       37.19600       99.23600
H        -22.52200       37.18100      100.08500
C        -20.85100       37.71100      101.30300
C        -21.65700       38.17700      102.35900
H        -22.71500       37.95200      102.37100
C        -21.09400       38.94500      103.39500
H        -21.71900       39.30500      104.19900
C        -19.72200       39.25100      103.37800
H        -19.29000       39.84500      104.17100
C        -18.91300       38.78800      102.32600
H        -17.85900       39.02900      102.30300
C        -19.47700       38.02000      101.29200
H        -18.85300       37.68100      100.47800
C        -22.12100       34.67300       99.19200
O        -23.32100       34.43000       99.30100
N        -21.40400       34.29200       98.13300
H        -20.41800       34.55200       98.11100
C        -21.85900       33.40000       97.06600
H        -22.92700       33.21700       97.19000
C        -21.66200       34.09000       95.70800
H        -20.61200       34.36100       95.59200
H        -21.90800       33.36900       94.92800
S        -22.69800       35.55700       95.43300
C        -21.17100       32.01800       97.13800
O        -21.17300       31.27300       96.15900
N        -20.57100       31.66800       98.28300
H        -20.61900       32.31500       99.06100
C        -19.82300       30.42200       98.48900
H        -19.75200       30.23800       99.56000
H        -20.37100       29.59700       98.03400
C        -18.39700       30.41300       97.91800
O        -17.73800       29.37900       97.93500
N        -17.87600       31.52500       97.41800
H        -18.40000       32.39500       97.43400
H        -16.94800       31.49200       97.03600
