110
0 1
H        -36.32300        8.55800       20.03900
C        -36.54300        7.61600       20.54000
H        -37.22600        7.79300       21.37000
H        -35.62000        7.17700       20.91300
C        -37.18300        6.66800       19.55600
O        -37.37300        7.01200       18.39400
N        -37.55600        5.47800       20.02300
H        -37.44200        5.29200       21.01200
C        -38.16700        4.39900       19.22500
H        -37.60300        4.29700       18.30000
C        -38.03000        3.08900       20.01300
H        -38.26000        2.25200       19.35100
H        -37.00200        2.96900       20.35800
C        -38.95800        3.04000       21.19700
N        -38.91100        3.89400       22.30200
C        -40.00500        3.60300       23.02700
H        -40.28700        4.10600       23.94200
N        -40.71900        2.63100       22.43300
H        -41.63600        2.29400       22.72100
C        -40.07300        2.26600       21.27700
H        -40.41300        1.55700       20.53500
C        -39.63700        4.65200       18.82100
O        -40.29900        3.75800       18.29700
N        -40.14800        5.86500       19.05700
H        -39.52100        6.53000       19.48000
C        -41.51600        6.32600       18.80500
H        -41.55700        7.36600       19.13000
C        -41.77100        6.35100       17.29300
H        -41.08800        7.06300       16.83200
H        -41.53800        5.37300       16.88000
S        -43.45500        6.78100       16.79900
C        -42.61500        5.61500       19.62600
O        -43.26100        6.27900       20.43200
N        -42.83100        4.30400       19.45600
H        -42.18300        3.80500       18.85600
C        -43.86800        3.53400       20.16900
H        -44.06900        4.01500       21.12700
C        -45.18200        3.49700       19.35600
H        -44.95100        3.15300       18.34900
H        -45.84400        2.75600       19.80900
C        -45.96300        4.82100       19.24600
H        -45.32300        5.59500       18.82800
C        -47.15100        4.63200       18.30000
H        -46.79900        4.31800       17.31900
H        -47.83000        3.87600       18.69700
H        -47.68600        5.57500       18.19200
C        -46.51500        5.28900       20.59400
H        -45.69400        5.52400       21.27000
H        -47.10300        6.19500       20.45500
H        -47.14000        4.51400       21.03700
C        -43.40600        2.10900       20.51300
O        -43.32300        1.74900       21.68400
N        -43.06400        1.29000       19.52800
H        -42.78200        0.35300       19.76000
H        -43.20600        1.56000       18.56400
H        -43.20500        3.79000       10.11000
C        -42.25900        4.17900       10.48400
H        -42.41100        5.17300       10.90100
H        -41.53800        4.22700        9.67100
C        -41.73800        3.25700       11.55900
O        -42.37500        2.26000       11.88300
N        -40.59700        3.60800       12.15400
H        -40.16500        4.48600       11.89900
C        -39.94100        2.81300       13.20700
H        -39.78800        1.80200       12.82600
C        -38.56700        3.41900       13.51700
H        -38.00000        2.69700       14.10600
H        -38.02300        3.58700       12.58700
C        -38.63100        4.71500       14.28600
N        -39.29500        5.87300       13.87800
C        -39.06300        6.78100       14.84000
H        -39.43000        7.79900       14.82400
N        -38.30400        6.25200       15.81700
H        -37.97200        6.74100       16.64900
C        -38.02100        4.94900       15.48100
H        -37.41700        4.24500       16.03400
C        -40.77800        2.66700       14.48900
O        -40.50300        1.78700       15.29800
N        -41.85100        3.45500       14.62200
H        -41.96000        4.19000       13.94200
C        -42.91900        3.28800       15.60800
H        -42.53700        3.53400       16.59800
C        -44.05600        4.25200       15.23400
H        -44.52400        3.88000       14.32100
H        -44.81100        4.22400       16.02100
S        -43.60100        5.98400       14.93600
C        -43.48400        1.85600       15.66700
O        -43.94400        1.43400       16.72400
N        -43.45000        1.11400       14.55200
H        -43.05600        1.52900       13.71500
C        -43.89900       -0.28100       14.46200
H        -44.83900       -0.38100       15.00500
C        -44.14500       -0.62500       12.97800
H        -43.19800       -0.52800       12.44500
H        -44.45600       -1.66900       12.90900
C        -45.20100        0.24600       12.26800
H        -44.92800        1.29800       12.34200
C        -45.25900       -0.12400       10.78500
H        -45.54000       -1.17100       10.67000
H        -45.98900        0.50500       10.27600
H        -44.28100        0.04000       10.33200
C        -46.60000        0.06300       12.86100
H        -46.61600        0.41300       13.89200
H        -47.32200        0.64600       12.29000
H        -46.88400       -0.98900       12.83200
C        -42.93200       -1.29900       15.10800
O        -43.24500       -2.48000       15.18900
N        -41.75500       -0.89400       15.56800
H        -41.14800       -1.57800       15.98600
H        -41.48500        0.07800       15.50700
