110
0 1
H        -31.69700        8.13800       20.22600
C        -31.82700        7.09300       19.94800
H        -32.81600        6.94700       19.51800
H        -31.71300        6.46400       20.82900
C        -30.77700        6.71900       18.93100
O        -29.95100        7.54400       18.56300
N        -30.83100        5.48100       18.44300
H        -31.60100        4.88600       18.72200
C        -29.89900        4.93200       17.44400
H        -28.88500        4.97200       17.84200
C        -30.27200        3.46400       17.18300
H        -29.54200        3.03500       16.49400
H        -30.21200        2.90800       18.11900
C        -31.65600        3.27800       16.60500
N        -32.84500        3.69000       17.21400
C        -33.82900        3.31300       16.38300
H        -34.88500        3.47100       16.56300
N        -33.32300        2.69900       15.30200
H        -33.88600        2.29000       14.55500
C        -31.95200        2.66800       15.42200
H        -31.24100        2.23300       14.73300
C        -29.88500        5.71400       16.12400
O        -28.86600        5.73700       15.44600
N        -30.98200        6.39600       15.78800
H        -31.79600        6.25700       16.36600
C        -31.11300        7.27200       14.62100
H        -30.79600        6.71700       13.73800
C        -32.59800        7.63200       14.48200
H        -32.92300        8.13300       15.39400
H        -32.71800        8.33700       13.65800
S        -33.68800        6.21900       14.18200
C        -30.26500        8.56300       14.66700
O        -30.28500        9.32500       13.70000
N        -29.56200        8.85400       15.76900
H        -29.57100        8.19100       16.53600
C        -28.77300       10.07900       15.94500
H        -29.46000       10.92300       15.87200
C        -28.16700       10.06100       17.36200
H        -28.97800        9.99100       18.08800
H        -27.55800        9.16000       17.45600
C        -27.28900       11.27300       17.72900
H        -26.47400       11.36800       17.01300
C        -28.08800       12.57900       17.75100
H        -27.43900       13.39900       18.05800
H        -28.48000       12.80300       16.76200
H        -28.91600       12.49600       18.45700
C        -26.68100       11.06700       19.11700
H        -26.07900       10.15800       19.12100
H        -26.04000       11.91100       19.36900
H        -27.47100       10.97500       19.86300
C        -27.70000       10.24900       14.85000
O        -26.99600        9.31400       14.48700
N        -27.53500       11.45400       14.32100
H        -26.83600       11.56500       13.60600
H        -28.12900       12.21500       14.60100
H        -28.35200        3.86100        6.70500
C        -29.36200        3.79600        7.10500
H        -29.99700        3.25100        6.40700
H        -29.76300        4.79500        7.26200
C        -29.33000        3.05500        8.42000
O        -29.94800        2.00900        8.55400
N        -28.61900        3.60800        9.39900
H        -28.17100        4.50000        9.22900
C        -28.50000        3.06400       10.76200
H        -28.29700        1.99400       10.70200
C        -27.31400        3.75900       11.44500
H        -27.13100        3.26800       12.40200
H        -26.42000        3.63300       10.83200
C        -27.52400        5.23500       11.69400
N        -27.96200        6.17400       10.75200
C        -27.98400        7.35200       11.39900
H        -28.27900        8.29600       10.95900
N        -27.57700        7.19900       12.66900
H        -27.47300        7.94400       13.35900
C        -27.28100        5.87300       12.87100
H        -26.93600        5.42200       13.79100
C        -29.77600        3.23000       11.60500
O        -29.97000        2.51600       12.58700
N        -30.66500        4.14400       11.21100
H        -30.40600        4.71400       10.42100
C        -31.98700        4.34700       11.80000
H        -31.88500        4.31100       12.88500
C        -32.46600        5.75500       11.42100
H        -31.69300        6.47500       11.69200
H        -32.59300        5.79400       10.33900
S        -34.02500        6.29100       12.17500
C        -32.97300        3.22800       11.39600
O        -33.92100        3.44600       10.64200
N        -32.72900        2.00100       11.86800
H        -31.87800        1.86600       12.40200
C        -33.61200        0.85300       11.64000
H        -33.76700        0.74100       10.56500
C        -32.97300       -0.44100       12.18700
H        -32.51200       -0.24300       13.15700
H        -33.77800       -1.15800       12.35300
C        -31.95100       -1.12000       11.25300
H        -32.40800       -1.26400       10.27400
C        -30.65600       -0.33000       11.08000
H        -30.20000       -0.13100       12.05000
H        -29.95700       -0.89100       10.46000
H        -30.86400        0.61000       10.57200
C        -31.58400       -2.49400       11.81500
H        -32.47900       -3.10900       11.90800
H        -30.88900       -2.99400       11.14000
H        -31.11700       -2.38500       12.79400
C        -34.98600        1.09300       12.29100
O        -35.07900        1.46900       13.45600
N        -36.06900        0.83800       11.57100
H        -35.98000        0.56500       10.60700
H        -36.96800        1.00500       11.99100
