94
0 1
H         34.06100        5.41400       25.09500
C         35.08700        5.19900       25.38900
H         35.14200        5.07000       26.46900
H         35.72700        6.02400       25.08200
C         35.53800        3.92800       24.71200
O         35.86300        2.95500       25.38100
N         35.59300        3.93300       23.38200
H         35.27300        4.77600       22.90900
C         35.96900        2.78200       22.53000
H         35.44700        1.90600       22.91300
C         35.49600        2.99600       21.07900
H         35.78600        2.13200       20.48000
C         33.98000        3.15100       20.97100
H         33.65000        4.05300       21.48700
H         33.70000        3.22400       19.92100
H         33.48800        2.28300       21.41000
O         36.08000        4.15300       20.52500
H         37.04300        4.03100       20.52800
C         37.47000        2.43500       22.57000
O         38.08700        2.18400       21.53600
N         38.09200        2.44700       23.75000
H         37.51300        2.61500       24.56800
C         39.54500        2.41700       23.95200
H         39.98000        3.28300       23.46200
C         39.81100        2.53600       25.45700
H         39.37500        1.66700       25.95100
H         40.88900        2.49900       25.62400
S         39.17500        4.01700       26.28600
C         40.27900        1.16900       23.41700
O         41.49700        1.20900       23.26100
N         39.56300        0.06700       23.17500
H         38.55900        0.14900       23.25100
C         40.09200       -1.27800       22.90300
H         40.91900       -1.44700       23.59400
C         38.99800       -2.31500       23.23300
H         39.43900       -3.31000       23.17000
H         38.66100       -2.17400       24.26200
C         37.77700       -2.27500       22.29700
H         38.12000       -2.23400       21.26300
H         37.23000       -3.20900       22.42200
S         36.60800       -0.91400       22.58800
C         35.52300       -1.13300       21.15400
H         36.10000       -1.01400       20.23700
H         35.07900       -2.12800       21.17800
H         34.73000       -0.38500       21.18000
C         40.67700       -1.50700       21.49100
O         40.97000       -2.63900       21.12400
N         40.83800       -0.49000       20.66000
H         41.22100       -0.67400       19.74800
H         40.62700        0.45500       20.94800
H         42.94900        3.30400       24.33600
C         43.57500        3.97400       23.75100
H         44.30800        3.39300       23.19500
H         44.08400        4.67200       24.41400
C         42.71400        4.74900       22.78500
O         42.65900        5.97100       22.84100
N         42.01000        4.04500       21.90200
H         42.08000        3.03400       21.93900
C         41.12900        4.61800       20.86000
H         41.63500        5.48200       20.42900
C         40.91200        3.59600       19.72900
H         40.18900        3.98600       19.01200
C         42.20800        3.29300       18.97700
H         42.62200        4.21400       18.56800
H         42.93700        2.83100       19.64300
H         41.99400        2.60700       18.15700
O         40.44800        2.37400       20.25000
H         39.53000        2.49000       20.56100
C         39.78900        5.13800       21.41400
O         38.72800        4.84700       20.86600
N         39.81900        5.86100       22.53600
H         40.74100        6.09900       22.88800
C         38.68500        6.18200       23.41400
H         38.13300        5.26100       23.59400
C         39.25300        6.65200       24.76200
H         39.78600        7.59000       24.59600
H         38.42100        6.87100       25.43300
S         40.37700        5.52000       25.62500
C         37.66100        7.20200       22.85200
O         37.37300        8.21300       23.49100
N         37.09300        6.95200       21.67100
H         37.35100        6.09700       21.19300
C         35.98100        7.73900       21.12100
H         36.24000        8.79600       21.19700
C         35.78700        7.41200       19.63800
H         36.74800        7.47900       19.12500
H         35.39600        6.40100       19.53300
O         34.88400        8.32800       19.05000
H         34.74000        8.06700       18.13500
C         34.67700        7.51600       21.90500
O         34.47400        6.47600       22.52900
N         33.76200        8.47400       21.88300
H         32.90700        8.33500       22.39400
H         33.91900        9.29500       21.32000
