94
0 1
H         34.17800        5.45700       12.83800
C         34.94400        5.26500       12.08800
H         35.42900        6.19900       11.81400
H         34.48800        4.81200       11.21000
C         35.96800        4.31700       12.66400
O         35.84900        3.89800       13.80900
N         36.98900        3.98500       11.87800
H         37.03400        4.38300       10.95100
C         38.07900        3.06000       12.24500
H         37.64100        2.21400       12.77100
C         38.76500        2.50700       10.98300
H         39.57700        1.84200       11.28000
C         37.80800        1.72200       10.08700
H         37.35400        0.91100       10.65600
H         37.02800        2.37400        9.69400
H         38.36700        1.29900        9.25200
O         39.29200        3.57000       10.22400
H         40.03900        3.91200       10.73400
C         39.09900        3.70200       13.20100
O         40.28800        3.78000       12.90100
N         38.64000        4.20500       14.34700
H         37.64400        4.11400       14.52600
C         39.45000        4.90600       15.35300
H         40.17600        5.52700       14.82600
C         38.51300        5.84500       16.12700
H         39.09800        6.41100       16.85300
H         38.10000        6.56200       15.41700
S         37.11300        5.06700       16.99000
C         40.27400        3.98500       16.28200
O         40.82300        4.45000       17.28100
N         40.32300        2.68100       16.00000
H         39.87900        2.37700       15.14800
C         41.01200        1.65100       16.79000
H         40.91100        1.89700       17.84700
C         40.35700        0.27500       16.55700
H         40.63000       -0.09900       15.56900
H         40.75600       -0.41700       17.30000
C         38.82500        0.27300       16.67800
H         38.50100       -0.74000       16.92200
H         38.53700        0.91800       17.50700
S         37.93500        0.79200       15.18100
C         36.32400        1.20300       15.90000
H         36.44000        2.00700       16.62700
H         35.64700        1.53300       15.11200
H         35.90500        0.32500       16.39200
C         42.51500        1.58000       16.47300
O         42.97000        2.00400       15.41700
N         43.31600        1.01200       17.36100
H         44.29700        0.95500       17.14800
H         42.96000        0.69300       18.25200
H         44.83000        5.27800       17.61200
C         44.18500        4.40600       17.69400
H         44.78200        3.50300       17.58000
H         43.42800        4.44000       16.91300
C         43.51700        4.39900       19.04800
O         43.61900        3.42400       19.78800
N         42.84400        5.49500       19.38900
H         42.72100        6.21700       18.69500
C         42.26700        5.73700       20.72500
H         43.05000        5.61000       21.47300
C         41.73400        7.17500       20.82700
H         41.22900        7.30500       21.78500
C         42.85400        8.21100       20.73100
H         43.34000        8.15900       19.75700
H         42.43300        9.20800       20.86400
H         43.59000        8.03100       21.51400
O         40.82100        7.44600       19.78400
H         39.98700        7.01300       19.98500
C         41.13900        4.77800       21.10700
O         40.91600        4.54700       22.29100
N         40.42100        4.20700       20.13800
H         40.66700        4.41700       19.17500
C         39.32700        3.26100       20.36900
H         38.79200        3.56000       21.27200
C         38.34200        3.35500       19.19800
H         38.84900        3.03900       18.29100
H         37.51500        2.66500       19.36900
S         37.66600        5.01800       18.94800
C         39.86000        1.83500       20.61400
O         39.55900        0.91100       19.85900
N         40.68600        1.67200       21.65100
H         40.86000        2.47700       22.24400
C         41.41200        0.43300       21.96800
H         41.02600       -0.37900       21.35200
C         42.90300        0.58800       21.65100
H         43.32300        1.40300       22.24300
H         43.42100       -0.33600       21.90800
O         43.10100        0.85100       20.27700
H         43.27300        1.81100       20.17500
C         41.24400        0.03100       23.43500
O         41.16800        0.87000       24.32200
N         41.22100       -1.26300       23.72600
H         41.28300       -1.95200       22.99400
H         41.11800       -1.52700       24.69200
