94
0 1
H         39.55500        8.27400        9.79500
C         39.25600        8.51400       10.81300
H         38.20200        8.78800       10.82900
H         39.85400        9.34200       11.19000
C         39.46100        7.30500       11.69300
O         38.51700        6.79900       12.28300
N         40.70300        6.84000       11.80100
H         41.44300        7.30700       11.29700
C         41.08300        5.65200       12.58700
H         40.30600        4.90100       12.45300
C         42.39200        5.04200       12.05600
H         42.65800        4.17900       12.66700
C         42.27800        4.57900       10.60400
H         43.20900        4.09700       10.30800
H         41.46300        3.86200       10.51000
H         42.09500        5.42700        9.94400
O         43.42500        5.99600       12.12700
H         43.61200        6.12200       13.06600
C         41.16700        5.93900       14.09700
O         42.19800        5.70000       14.72800
N         40.09400        6.46900       14.69400
H         39.28000        6.64000       14.11100
C         40.01600        6.86600       16.11100
H         40.86100        7.53200       16.29600
C         38.73800        7.70000       16.35800
H         38.40100        7.56200       17.38600
H         39.03200        8.74700       16.27000
S         37.32000        7.48100       15.23300
C         40.19300        5.72800       17.14600
O         40.23300        5.99300       18.34300
N         40.30900        4.47400       16.69800
H         40.23900        4.34300       15.69500
C         40.57700        3.26300       17.48800
H         41.11000        3.55000       18.39600
C         39.26100        2.57000       17.90300
H         38.70000        2.31000       17.00600
H         39.49500        1.64500       18.43200
C         38.37000        3.41000       18.82400
H         38.88000        3.55100       19.77700
H         38.20500        4.39000       18.38200
S         36.74400        2.66900       19.12400
C         36.00000        3.99000       20.11700
H         35.96600        4.91200       19.53600
H         34.98700        3.70400       20.40100
H         36.59500        4.15000       21.01700
C         41.50700        2.30500       16.71200
O         41.41200        1.08900       16.82000
N         42.38600        2.82400       15.86100
H         42.45000        3.82600       15.74200
H         42.98000        2.19500       15.34700
H         32.84400        2.01500        8.50300
C         32.25600        2.67700        9.13600
H         31.19500        2.50700        8.95500
H         32.50100        3.71500        8.91900
C         32.55800        2.38300       10.58600
O         31.66900        2.01500       11.34000
N         33.82000        2.54000       10.97800
H         34.50400        2.85000       10.30300
C         34.29100        2.32100       12.35500
H         33.53400        2.70000       13.04200
C         34.47700        0.81900       12.66300
H         33.49800        0.33900       12.69200
C         35.35300        0.06800       11.65800
H         35.42100       -0.98100       11.94600
H         34.90700        0.11600       10.66600
H         36.35200        0.49900       11.62400
O         35.09600        0.67000       13.92300
H         35.49100       -0.21600       13.95800
C         35.59000        3.08500       12.61700
O         36.44300        3.19300       11.73600
N         35.78100        3.54900       13.85600
H         35.04600        3.41200       14.53300
C         37.06100        4.08000       14.32900
H         37.34000        4.94000       13.71700
C         36.90000        4.52600       15.78600
H         36.37700        3.74800       16.34400
H         37.88700        4.62000       16.21800
S         36.07400        6.10500       16.08100
C         38.21200        3.05600       14.24400
O         39.37600        3.45000       14.20200
N         37.91600        1.75200       14.22800
H         36.94000        1.47900       14.25800
C         38.90800        0.67500       14.08800
H         39.80700        0.96500       14.63200
C         38.37600       -0.60500       14.74700
H         39.18600       -1.33200       14.83200
H         38.01800       -0.37100       15.75100
O         37.32100       -1.16600       13.98500
H         37.73900       -1.66800       13.27200
C         39.34000        0.41700       12.63100
O         39.90000       -0.62900       12.32600
N         39.04900        1.30800       11.68900
H         39.32300        1.10800       10.74200
H         38.52900        2.14200       11.91900
