113
1 1
H          4.38800        0.69700      -17.53700
C          4.89400        0.49900      -16.59400
H          4.81600       -0.56000      -16.35200
H          4.43500        1.09100      -15.80400
C          6.35200        0.86200      -16.73600
O          7.18900       -0.00200      -16.96400
N          6.67800        2.14400      -16.58600
H          5.94700        2.78900      -16.31400
C          8.05100        2.65600      -16.69100
H          8.55700        2.11500      -17.49300
C          7.98900        4.14100      -17.09500
H          7.34500        4.25400      -17.96900
H          7.52600        4.68800      -16.27600
C          9.35900        4.76700      -17.41800
H         10.15200        4.25900      -16.87000
H          9.56500        4.65000      -18.48200
C          9.40800        6.24500      -17.04600
O          9.98300        6.63800      -16.04200
N          8.79700        7.11900      -17.81400
H          8.83700        8.07700      -17.51500
H          8.31200        6.82800      -18.64200
C          8.83700        2.38800      -15.39000
O          9.18600        3.31400      -14.66100
N          9.03100        1.11700      -15.03300
H          8.66800        0.40300      -15.65800
C          9.50600        0.68100      -13.71600
H          8.97900        1.22300      -12.94200
C          9.12400       -0.79200      -13.53500
H          9.68900       -1.38300      -14.25800
H          9.42100       -1.12100      -12.53800
S          7.35900       -1.17000      -13.76300
C         11.00300        0.94600      -13.47000
O         11.85700        0.14100      -13.83700
N         11.33200        2.04900      -12.77900
H         10.57900        2.67900      -12.51800
C         12.68800        2.28900      -12.24800
H         13.41800        2.08300      -13.03300
C         12.88300        3.74100      -11.76100
H         12.06400        4.02000      -11.09700
H         13.79200        3.76000      -11.15800
C         13.07800        4.80400      -12.86200
H         13.46000        5.71100      -12.39200
H         13.84000        4.45000      -13.55700
C         11.82300        5.18000      -13.66000
H         12.09700        5.90200      -14.43200
H         11.44500        4.29200      -14.16200
C         10.74200        5.79900      -12.76500
H         10.64000        5.20300      -11.85700
H         11.03700        6.81200      -12.48500
N          9.43100        5.82000      -13.43800
H          8.70000        6.16200      -12.81700
H          9.43100        6.37200      -14.29300
H          9.15700        4.87800      -13.70300
C         12.95900        1.31900      -11.09300
O         12.30800        1.39700      -10.05600
N         13.92100        0.42400      -11.24200
H         14.39800        0.34300      -12.12500
H         14.10100       -0.21700      -10.48800
H         10.67100       -0.57400       -8.37500
C          9.98300       -0.71100       -9.20800
H          9.42200       -1.63500       -9.07200
H         10.54200       -0.75500      -10.14000
C          9.01700        0.44900       -9.25600
O          7.80800        0.25000       -9.23800
N          9.53000        1.68000       -9.33300
H         10.54100        1.76400       -9.38400
C          8.68400        2.87800       -9.47500
H          7.79900        2.72700       -8.85400
C          9.42200        4.13200       -8.95900
H         10.16700        3.83800       -8.21700
H          9.94000        4.63800       -9.77400
C          8.43600        5.09600       -8.27900
H          7.57900        5.28300       -8.92800
H          8.06800        4.61800       -7.37000
C          9.08800        6.43000       -7.89000
H          8.47600        6.88900       -7.11100
H         10.08200        6.23700       -7.48300
N          9.16500        7.36200       -9.03000
H          8.63200        7.11400       -9.86800
C          9.74100        8.54900       -9.05100
N         10.48000        8.98000       -8.06600
H         10.89100        9.89200       -8.10700
H         10.59800        8.39100       -7.26300
N          9.58000        9.34000      -10.06700
H          9.94900       10.26700      -10.08600
H          8.85100        9.08000      -10.74500
C          8.21000        2.99800      -10.92700
O          8.95900        3.46600      -11.78000
N          7.01100        2.49500      -11.22100
H          6.54100        1.99300      -10.48100
C          6.46500        2.34000      -12.58200
H          7.28300        2.15600      -13.26200
C          5.58100        1.08800      -12.61300
H          4.72900        1.25300      -11.95300
H          5.19000        0.94900      -13.62100
S          6.39000       -0.46100      -12.11000
C          5.76700        3.58000      -13.17900
O          5.11100        3.47500      -14.21500
N          5.90400        4.74900      -12.55100
H          6.56400        4.80900      -11.78500
C          5.29300        6.01500      -12.97000
H          4.21700        5.86100      -13.06200
C          5.52900        7.09500      -11.89700
H          5.08100        8.03100      -12.23600
H          5.00900        6.79400      -10.98600
C          7.00600        7.33300      -11.54700
O          7.75900        6.36700      -11.28000
O          7.44400        8.49600      -11.47700
C          5.81700        6.51600      -14.32800
O          7.01300        6.49800      -14.60100
N          4.94200        7.02100      -15.18700
H          5.28500        7.37300      -16.06500
H          3.96100        7.04200      -14.96200
