113
1 1
H          2.59500        9.17000       -9.79700
C          1.99200        8.27900       -9.62700
H          2.06300        7.61700      -10.48900
H          0.95200        8.56600       -9.47500
C          2.49600        7.55800       -8.40100
O          3.49600        7.96200       -7.81200
N          1.81200        6.48200       -8.01900
H          0.97600        6.23600       -8.54200
C          2.12800        5.68500       -6.82800
H          2.16800        6.34800       -5.96200
C          1.03600        4.62900       -6.56600
H          0.94800        3.95600       -7.42000
H          1.36200        4.03100       -5.71300
C         -0.34900        5.20800       -6.21100
H         -0.90500        4.44000       -5.67400
H         -0.22900        6.05700       -5.53700
C         -1.20100        5.63100       -7.40900
O         -0.78500        5.62900       -8.55600
N         -2.43500        6.02800       -7.19200
H         -2.96800        6.28300       -8.00500
H         -2.81900        6.03900       -6.26500
C          3.50000        5.00700       -6.94000
O          4.31100        5.13400       -6.02700
N          3.80900        4.35900       -8.06800
H          3.12900        4.35200       -8.81400
C          5.08500        3.67100       -8.30600
H          5.68500        3.71200       -7.40400
C          4.83200        2.18900       -8.59300
H          4.12600        2.11500       -9.42200
H          5.76300        1.72200       -8.91600
S          4.18000        1.22300       -7.20000
C          5.92100        4.33700       -9.41000
O          5.38500        4.81500      -10.40600
N          7.24300        4.36500       -9.21000
H          7.58100        3.98300       -8.33000
C          8.27600        4.92500      -10.09400
H          7.87700        5.00600      -11.10700
C          8.71500        6.32800       -9.61200
H          9.06200        6.26200       -8.58100
H          9.57500        6.63000      -10.21200
C          7.66100        7.45000       -9.73600
H          8.10900        8.27100      -10.29700
H          6.80400        7.10100      -10.31100
C          7.17800        8.02300       -8.39000
H          8.03300        8.37300       -7.80900
H          6.51500        8.86700       -8.58800
C          6.41200        6.96200       -7.60200
H          5.59200        6.60400       -8.23000
H          7.08200        6.12800       -7.39800
N          5.85200        7.45700       -6.33000
H          6.57100        7.67000       -5.63300
H          5.21900        8.23100       -6.48800
H          5.30400        6.71400       -5.90700
C          9.48100        3.97500      -10.13300
O          9.75400        3.25600       -9.17400
N         10.23000        3.97700      -11.22400
H          9.99500        4.57300      -11.99900
H         11.02300        3.35800      -11.25800
H         11.58100       -0.10400       -6.27900
C         12.32000        0.68600       -6.16000
H         12.68500        0.99900       -7.13700
H         13.15400        0.31700       -5.56300
C         11.69100        1.86500       -5.45600
O         12.12900        2.25200       -4.37300
N         10.65600        2.45400       -6.06300
H         10.38700        2.13100       -6.98600
C         10.01200        3.66300       -5.53100
H         10.18900        3.67800       -4.46400
C         10.70300        4.89900       -6.13900
H         11.78200        4.73400       -6.14900
H         10.39000        5.01200       -7.17600
C         10.44600        6.21600       -5.38900
H         10.92700        7.01200       -5.95700
H          9.37800        6.43300       -5.36100
C         11.03200        6.23500       -3.96700
H         11.96900        5.67500       -3.94400
H         11.26300        7.27200       -3.71600
N         10.08300        5.74100       -2.95300
H          9.21800        6.27700       -2.83300
C         10.22800        4.76900       -2.07100
N         11.20900        3.90700       -2.08900
H         11.26800        3.20500       -1.38000
H         11.82500        3.85200       -2.88800
N          9.32600        4.63400       -1.15300
H          9.29600        3.85800       -0.52800
H          8.51600        5.26100       -1.23500
C          8.49000        3.64700       -5.66600
O          7.92000        4.35700       -6.48800
N          7.83400        2.81700       -4.85900
H          8.37400        2.25700       -4.22000
C          6.39300        2.90400       -4.61100
H          5.92000        3.43900       -5.42400
C          5.77300        1.50600       -4.57600
H          6.29200        0.91700       -3.81900
H          4.73000        1.59000       -4.26600
S          5.82000        0.59600       -6.14700
C          6.11000        3.69700       -3.32600
O          6.78000        3.49600       -2.31500
N          5.11200        4.57900       -3.38200
H          4.58800        4.64500       -4.24900
C          4.72900        5.54400       -2.34700
H          5.10900        5.20600       -1.38100
C          5.33200        6.92800       -2.65200
H          4.82800        7.34500       -3.52600
H          5.13600        7.59100       -1.80800
C          6.83700        6.90100       -2.91800
O          7.24700        7.21100       -4.06000
O          7.60000        6.54600       -1.99500
C          3.19700        5.66400       -2.26500
O          2.49000        5.50600       -3.25800
N          2.65900        5.98100       -1.09500
H          1.65700        6.07100       -1.04100
H          3.24200        6.12600       -0.28700
