113
1 1
H         18.42300        8.68900      -10.97000
C         19.12000        9.51700      -11.08500
H         19.53500        9.49700      -12.09200
H         19.92800        9.42900      -10.36100
C         18.38800       10.81800      -10.86600
O         18.53100       11.45500       -9.82500
N         17.62200       11.24400      -11.86300
H         17.54900       10.64900      -12.68400
C         17.02200       12.58100      -11.94400
H         17.80100       13.31900      -11.74800
C         16.48400       12.81700      -13.37200
H         15.72100       12.07300      -13.61000
H         15.99600       13.79300      -13.38000
C         17.55500       12.84400      -14.48300
H         17.16000       13.44000      -15.30700
H         18.45200       13.34500      -14.12000
C         17.93900       11.47800      -15.05800
O         17.65100       10.42400      -14.51700
N         18.62600       11.43800      -16.17600
H         18.87800       12.27700      -16.66500
H         18.84400       10.52000      -16.52600
C         15.90100       12.84300      -10.91900
O         15.52900       13.99600      -10.70900
N         15.35300       11.81100      -10.27100
H         15.74700       10.89300      -10.44000
C         14.06500       11.85100       -9.56600
H         13.36700       12.40100      -10.19900
C         13.54200       10.41900       -9.45000
H         14.13900        9.90400       -8.70200
H         12.51700       10.45700       -9.09200
S         13.54300        9.43900      -10.96900
C         14.06100       12.56100       -8.18800
O         13.37500       12.11600       -7.26100
N         14.80800       13.66200       -8.03200
H         15.29700       14.00300       -8.85400
C         14.97000       14.37900       -6.75400
H         15.32900       13.66000       -6.01900
C         16.02400       15.50000       -6.87900
H         15.90100       16.04200       -7.81900
H         15.85300       16.21000       -6.06700
C         17.47400       15.00500       -6.72900
H         18.09100       15.85300       -6.42800
H         17.51600       14.27400       -5.92200
C         18.09000       14.41600       -8.00800
H         17.40600       13.71200       -8.48100
H         18.28300       15.23000       -8.70800
C         19.40900       13.70100       -7.68600
H         20.03500       13.69600       -8.58300
H         19.93400       14.24900       -6.89900
N         19.15500       12.30400       -7.27300
H         19.98200       11.81000       -6.96200
H         18.41800       12.23700       -6.56600
H         18.82900       11.77500       -8.08000
C         13.64700       14.93300       -6.20500
O         13.40200       14.85600       -5.00300
N         12.77300       15.45000       -7.05500
H         12.99500       15.48600       -8.03600
H         11.90300       15.80600       -6.69600
H          9.87500        9.97100       -8.45200
C         10.29900       10.32400       -7.51200
H          9.49500       10.52800       -6.80800
H         10.86900       11.23400       -7.68500
C         11.18200        9.24000       -6.93800
O         10.94500        8.06900       -7.18900
N         12.20800        9.62600       -6.17200
H         12.40000       10.62200       -6.15000
C         13.09900        8.74900       -5.37400
H         13.87400        9.38900       -4.96500
C         12.33700        8.13100       -4.18100
H         11.54100        7.49800       -4.57600
H         13.01200        7.48200       -3.62000
C         11.70800        9.13700       -3.19400
H         11.15900        9.90700       -3.73700
H         10.98100        8.58800       -2.59400
C         12.69700        9.79400       -2.21500
H         12.13400       10.34800       -1.46200
H         13.24800        9.00600       -1.69600
N         13.66300       10.69500       -2.86900
H         14.56400       10.30000       -3.14700
C         13.51700       11.95400       -3.22700
N         12.43600       12.65200       -3.02500
H         12.41100       13.59600       -3.37900
H         11.66700       12.23900       -2.53700
N         14.48500       12.55200       -3.83500
H         14.35800       13.49200       -4.17100
H         15.28900       11.98100       -4.11600
C         13.93500        7.70600       -6.13300
O         14.83000        7.11400       -5.53700
N         13.78000        7.57100       -7.45000
H         12.93100        7.94100       -7.85400
C         14.81800        7.06400       -8.35900
H         15.20400        6.13400       -7.93700
C         14.19900        6.70000       -9.72400
H         14.97800        6.70200      -10.48700
H         13.84500        5.67200       -9.64100
S         12.78200        7.66700      -10.33200
C         16.03300        8.02700       -8.43100
O         16.31300        8.65700       -9.44800
N         16.72200        8.19800       -7.30000
H         16.39800        7.68300       -6.48400
C         17.78200        9.19000       -7.08100
H         17.49800       10.09800       -7.61200
C         17.86000        9.50300       -5.57500
H         17.69100        8.59400       -4.99300
H         18.85600        9.87200       -5.32600
C         16.86700       10.58700       -5.17300
O         16.02300       10.35400       -4.28400
O         16.96300       11.70100       -5.73800
C         19.17400        8.81100       -7.61500
O         20.06500        9.65800       -7.63400
N         19.39500        7.57900       -8.05400
H         18.65000        6.90200       -8.03400
H         20.31300        7.34300       -8.39300
