102
-2 1
H         23.69900      -20.71500      118.07900
C         24.77800      -20.66500      118.21300
H         25.06900      -19.67800      118.56700
H         25.26100      -20.88200      117.26200
C         25.19000      -21.70800      119.21800
O         25.51900      -21.38600      120.35400
N         25.18800      -22.96200      118.78500
H         24.90400      -23.11400      117.81600
C         25.39600      -24.15700      119.61500
H         24.60000      -24.20500      120.35800
C         25.32300      -25.42700      118.74300
H         26.20100      -25.47800      118.09800
H         25.36500      -26.28400      119.41700
C         24.05400      -25.57200      117.88200
H         23.80500      -26.63500      117.82300
H         23.21500      -25.07100      118.37200
C         24.25000      -25.02500      116.45900
O         24.35400      -25.83900      115.51900
O         24.33700      -23.78400      116.30400
C         26.72900      -24.14900      120.37900
O         26.81200      -24.68800      121.48200
N         27.75600      -23.49200      119.82900
H         27.61100      -23.08100      118.91900
C         29.07300      -23.33400      120.45100
H         29.47800      -24.32400      120.65800
C         29.99200      -22.63400      119.44300
H         29.59700      -21.63700      119.23300
H         30.97900      -22.51000      119.89100
S         30.17500      -23.53800      117.88100
C         29.04300      -22.56500      121.78700
O         29.95100      -22.72600      122.60100
N         28.00200      -21.76000      122.03000
H         27.28500      -21.67900      121.31700
C         27.78700      -21.02200      123.28400
H         28.75700      -20.83100      123.74500
C         27.16000      -19.65800      122.95900
H         26.15900      -19.80700      122.55200
H         27.07100      -19.07800      123.87800
C         27.98200      -18.86300      121.97500
N         29.19200      -18.23000      122.26700
C         29.63700      -17.74800      121.09500
H         30.56800      -17.21600      120.95700
N         28.77800      -18.03300      120.10600
H         28.92800      -17.78000      119.12100
C         27.72700      -18.74400      120.64000
H         26.88900      -19.16700      120.10800
C         26.95900      -21.80700      124.31800
O         26.68700      -21.31800      125.41000
N         26.53300      -23.02900      124.01700
H         25.99500      -23.53300      124.69800
H         26.76200      -23.44000      123.12000
H         26.96800      -19.19900      116.58900
C         26.52300      -18.82600      115.66800
H         25.96900      -17.91300      115.87600
H         25.85900      -19.57500      115.24100
C         27.62900      -18.52400      114.69200
O         27.71400      -19.13200      113.63100
N         28.49700      -17.59400      115.06800
H         28.38800      -17.19200      116.00000
C         29.70000      -17.21800      114.31200
H         29.38400      -16.87200      113.32800
C         30.41400      -16.04600      115.02100
H         31.15300      -15.63100      114.33300
H         29.68200      -15.26100      115.21400
C         31.13700      -16.38400      116.34100
H         32.02700      -16.97500      116.11100
H         31.47400      -15.45400      116.80200
C         30.24800      -17.15100      117.32900
O         30.59200      -18.29600      117.68300
O         29.14800      -16.65500      117.65800
C         30.66700      -18.39200      114.07500
O         31.36200      -18.41000      113.05900
N         30.68300      -19.39200      114.96300
H         30.18700      -19.25800      115.83900
C         31.49900      -20.59800      114.83300
H         32.53800      -20.28500      114.73000
C         31.37600      -21.40500      116.13000
H         32.11400      -22.20700      116.08900
H         31.62500      -20.76000      116.97500
S         29.75800      -22.16100      116.44000
C         31.16700      -21.46400      113.59800
O         32.02100      -22.23800      113.16700
N         29.98100      -21.31100      112.99100
H         29.31200      -20.66800      113.39800
C         29.64000      -21.93100      111.69700
H         29.97800      -22.96900      111.70500
C         28.11500      -21.93800      111.51100
H         27.73600      -20.91700      111.58000
H         27.88500      -22.30800      110.51100
C         27.37300      -22.81300      112.49000
N         27.36000      -24.21000      112.46500
C         26.53000      -24.58300      113.45500
H         26.27500      -25.60500      113.70800
N         26.03100      -23.50800      114.08300
H         25.35100      -23.56200      114.85000
C         26.55200      -22.37900      113.49000
H         26.33800      -21.35200      113.73900
C         30.32500      -21.25400      110.49300
O         30.26100      -21.74900      109.37200
N         30.98600      -20.11600      110.66800
H         31.43500      -19.69500      109.87500
H         31.04800      -19.69900      111.58900
