102
-2 1
H         33.05400      -20.47900      121.40200
C         32.94000      -21.14700      120.54900
H         32.31100      -21.99100      120.82200
H         33.91500      -21.49900      120.22000
C         32.28400      -20.38900      119.42000
O         31.98100      -19.21300      119.56700
N         32.07500      -21.07600      118.30400
H         32.33500      -22.05200      118.27400
C         31.41600      -20.57500      117.09100
H         30.58800      -19.92300      117.37900
C         32.43300      -19.77200      116.24200
H         33.25600      -19.43800      116.87600
H         32.86300      -20.42800      115.48300
C         31.86600      -18.51800      115.55600
H         31.62300      -17.77900      116.32300
H         32.63900      -18.08800      114.91500
C         30.61800      -18.81900      114.72800
O         29.50500      -18.77600      115.29200
O         30.74900      -19.23100      113.55600
C         30.85600      -21.78100      116.30400
O         31.37800      -22.89000      116.43900
N         29.82200      -21.58400      115.48200
H         29.43400      -20.64500      115.42000
C         29.29700      -22.59400      114.55900
H         29.04300      -23.50000      115.11100
C         28.03200      -22.03500      113.90100
H         28.29000      -21.08700      113.43100
H         27.73900      -22.71800      113.10400
S         26.58700      -21.75900      114.96200
C         30.29000      -22.97500      113.44300
O         30.45000      -24.15500      113.14200
N         30.93300      -21.97800      112.81900
H         30.74700      -21.02900      113.13800
C         31.75300      -22.13200      111.60300
H         32.02800      -23.18100      111.47300
C         30.91900      -21.70500      110.38200
H         30.50600      -20.71000      110.55300
H         31.57800      -21.64700      109.51400
C         29.80100      -22.65600      110.03100
N         29.97200      -23.85400      109.33300
C         28.75100      -24.40400      109.25400
H         28.52700      -25.35200      108.78400
N         27.83800      -23.62200      109.84800
H         26.84800      -23.87800      109.93900
C         28.47800      -22.50300      110.33800
H         28.03300      -21.67400      110.87000
C         33.06600      -21.33400      111.64800
O         34.05200      -21.70900      111.02200
N         33.13100      -20.23400      112.38400
H         32.29800      -19.89500      112.85500
H         33.99400      -19.72200      112.41400
H         25.12100      -20.71700      107.34100
C         25.14700      -20.75900      108.42700
H         25.38500      -19.77900      108.83900
H         25.90400      -21.47600      108.74300
C         23.80000      -21.20000      108.93900
O         23.07400      -20.42000      109.54000
N         23.47100      -22.47000      108.73700
H         24.14600      -23.06600      108.25600
C         22.27600      -23.11400      109.30900
H         21.39900      -22.57400      108.94900
C         22.17300      -24.57200      108.80400
H         21.19400      -24.96200      109.08700
H         22.20500      -24.55600      107.71300
C         23.24100      -25.56800      109.30700
H         23.04300      -25.79200      110.35800
H         23.13700      -26.50300      108.75100
C         24.67200      -25.03500      109.15300
O         25.06800      -24.73300      108.00800
O         25.31400      -24.74900      110.18700
C         22.23200      -23.03900      110.84900
O         21.17900      -22.77600      111.42500
N         23.38100      -23.19700      111.51000
H         24.18900      -23.50400      110.97000
C         23.57600      -23.05200      112.95200
H         22.83200      -23.65500      113.47300
C         24.96600      -23.64100      113.23700
H         24.93800      -24.69400      112.95400
H         25.68400      -23.16400      112.57000
S         25.62800      -23.55500      114.92500
C         23.40800      -21.59600      113.44000
O         23.04200      -21.36900      114.59300
N         23.59400      -20.60500      112.55800
H         23.84500      -20.85200      111.61000
C         23.26700      -19.19300      112.81300
H         23.44800      -18.97700      113.86600
C         24.19000      -18.29400      111.97100
H         24.01200      -18.47700      110.91200
H         23.93800      -17.25200      112.16900
C         25.66300      -18.46400      112.25100
N         26.67700      -18.47100      111.28700
C         27.83000      -18.55500      111.97100
H         28.81800      -18.59100      111.53000
N         27.59100      -18.58200      113.29000
H         28.31400      -18.64100      114.01700
C         26.23300      -18.52700      113.48900
H         25.72000      -18.51900      114.43900
C         21.78500      -18.85400      112.56200
O         21.34500      -17.74300      112.84300
N         20.97800      -19.77600      112.05100
H         20.01600      -19.54000      111.89300
H         21.33500      -20.69300      111.82100
