102
-2 1
H         28.77000      -33.44500      125.08100
C         29.55000      -33.49000      124.32300
H         29.63900      -34.50500      123.94100
H         30.49900      -33.16800      124.74600
C         29.18200      -32.57000      123.18400
O         29.03400      -33.02000      122.05700
N         29.04100      -31.28700      123.49600
H         29.21300      -30.99200      124.44600
C         28.73200      -30.19900      122.55800
H         29.23700      -30.39500      121.61000
C         27.20400      -30.14900      122.31400
H         26.77400      -31.13300      122.51000
H         26.74400      -29.45000      123.01400
C         26.81200      -29.77600      120.87600
H         27.21700      -30.52500      120.19200
H         25.72300      -29.80300      120.79200
C         27.31600      -28.38800      120.49100
O         28.34200      -28.29700      119.78200
O         26.77000      -27.39100      121.00700
C         29.27900      -28.87700      123.14300
O         29.43600      -28.77000      124.36100
N         29.59800      -27.89300      122.30200
H         29.40500      -28.02200      121.31000
C         30.15100      -26.59800      122.70600
H         30.97300      -26.76400      123.40200
C         30.70500      -25.91500      121.45200
H         29.92800      -25.90400      120.68600
H         30.94900      -24.87900      121.69200
S         32.18800      -26.70400      120.77400
C         29.14700      -25.66300      123.40400
O         29.52200      -24.99900      124.36900
N         27.89600      -25.59700      122.92800
H         27.64800      -26.20600      122.15000
C         26.90400      -24.59300      123.35800
H         27.23400      -24.13100      124.29000
C         26.81900      -23.48000      122.29800
H         26.51300      -23.91400      121.34700
H         26.05000      -22.76900      122.60100
C         28.10000      -22.70600      122.09600
N         28.63400      -21.78900      123.00500
C         29.74600      -21.31200      122.42600
H         30.40000      -20.57100      122.86400
N         29.92600      -21.85900      121.21500
H         30.68100      -21.59800      120.57200
C         28.89700      -22.74500      120.98700
H         28.72700      -23.33400      120.09800
C         25.50800      -25.17500      123.63300
O         24.72700      -24.60400      124.38800
N         25.15500      -26.31600      123.05800
H         25.78100      -26.75900      122.39300
H         24.24300      -26.68900      123.24600
H         38.54500      -19.51400      116.47900
C         38.04600      -18.56700      116.67400
H         37.70700      -18.12500      115.73900
H         38.72700      -17.88600      117.18100
C         36.85100      -18.81400      117.56300
O         36.77800      -18.27200      118.65700
N         35.92700      -19.63700      117.08100
H         36.08100      -20.07400      116.18400
C         34.70000      -20.05300      117.77300
H         34.90900      -20.13400      118.84200
C         33.60500      -18.98100      117.56200
H         34.07900      -18.01400      117.38500
H         33.02300      -19.22200      116.67100
C         32.66600      -18.79400      118.76400
H         33.25800      -18.50900      119.63700
H         31.97800      -17.97400      118.54600
C         31.86500      -20.05800      119.06100
O         32.21900      -20.78300      120.01700
O         30.98800      -20.41200      118.25000
C         34.29000      -21.44900      117.24800
O         34.66000      -21.81400      116.13100
N         33.57800      -22.24600      118.04800
H         33.23400      -21.86100      118.92600
C         33.16400      -23.61000      117.71400
H         34.01300      -24.13600      117.27600
C         32.79600      -24.30700      119.02900
H         33.66400      -24.28600      119.68700
H         31.99400      -23.74600      119.51400
S         32.25800      -26.02800      118.85900
C         32.00800      -23.68900      116.69600
O         32.02600      -24.55500      115.82100
N         31.00300      -22.81000      116.79300
H         31.04900      -22.09800      117.52200
C         29.87300      -22.72700      115.85100
H         29.86000      -23.60200      115.20000
C         28.54300      -22.68100      116.62400
H         28.56000      -21.82100      117.29500
H         27.73900      -22.51500      115.90600
C         28.16100      -23.89600      117.44200
N         26.97800      -23.98700      118.17900
C         27.00200      -25.18900      118.77300
H         26.23500      -25.57000      119.43500
N         28.12200      -25.85100      118.44900
H         28.36100      -26.78100      118.81200
C         28.86400      -25.05900      117.60000
H         29.81500      -25.30800      117.15300
C         29.97800      -21.49900      114.93400
O         29.56200      -21.53700      113.78000
N         30.53600      -20.39500      115.41200
H         30.61300      -19.59100      114.81700
H         30.80700      -20.36500      116.39100
