98
-1 1
H         80.44900       89.88400      -37.34200
C         81.25100       89.28300      -36.92000
H         81.25100       89.37400      -35.83400
H         82.21200       89.61100      -37.31000
C         81.03400       87.83300      -37.28700
O         80.05200       87.50600      -37.94300
N         81.95900       86.97500      -36.86700
H         82.73800       87.35600      -36.33500
C         81.91800       85.52500      -37.06600
H         80.88200       85.18900      -37.00400
C         82.45200       85.19400      -38.46900
H         81.85700       85.73000      -39.20900
H         83.47800       85.55600      -38.55600
C         82.41800       83.71600      -38.81100
C         81.23300       83.13900      -39.30500
H         80.35200       83.75100      -39.43800
C         81.19000       81.76700      -39.61500
H         80.27700       81.32700      -39.98800
C         82.33300       80.96900      -39.43000
H         82.29900       79.91400      -39.66200
C         83.51800       81.54200      -38.93500
H         84.39400       80.92900      -38.78300
C         83.56000       82.91300      -38.62600
H         84.46900       83.34700      -38.23600
C         82.70800       84.77500      -35.98200
O         82.16400       83.88500      -35.33100
N         83.96900       85.14800      -35.74100
H         84.33600       85.95900      -36.23600
C         84.82600       84.49900      -34.74100
H         84.73200       83.41900      -34.86000
C         86.29100       84.87100      -35.00300
H         86.38900       85.95400      -35.09700
H         86.87500       84.55300      -34.13800
S         87.00700       84.06200      -36.46200
C         84.42300       84.80700      -33.28600
O         84.78300       84.05600      -32.38200
N         83.66100       85.87800      -33.05100
H         83.47700       86.50700      -33.82800
C         82.99500       86.17600      -31.77300
H         83.68400       85.94700      -30.96100
C         82.66800       87.67300      -31.70100
H         82.14000       87.88200      -30.77000
H         83.59700       88.24400      -31.70700
O         81.86900       88.08700      -32.79200
H         82.46400       88.16000      -33.57700
C         81.72400       85.34400      -31.52400
O         81.17400       85.37300      -30.42700
N         81.23700       84.57300      -32.49000
H         81.69600       84.52500      -33.38900
H         80.41000       84.03600      -32.30200
H         83.50700       90.45000      -39.42500
C         84.42300       90.98400      -39.66800
H         84.18400       91.93000      -40.15000
H         85.04100       90.37900      -40.32900
C         85.19300       91.25900      -38.40000
O         85.50700       92.40700      -38.10400
N         85.49800       90.20100      -37.66000
H         85.13600       89.30000      -37.94500
C         86.19400       90.22800      -36.36300
H         86.52000       91.24500      -36.14200
C         85.20400       89.80000      -35.26500
H         85.73700       89.72800      -34.31500
H         84.45200       90.58400      -35.16100
C         84.47500       88.47400      -35.52900
O         84.75500       87.77300      -36.52800
O         83.57000       88.12900      -34.74200
C         87.45500       89.34100      -36.32400
O         88.40100       89.65300      -35.60300
N         87.49600       88.26000      -37.11000
H         86.62100       88.00700      -37.55300
C         88.56100       87.25100      -37.11900
H         88.57200       86.75100      -36.14900
C         88.22400       86.21800      -38.20000
H         88.20800       86.72700      -39.16500
H         89.02300       85.47500      -38.23000
S         86.65100       85.33600      -38.00900
C         89.98300       87.79300      -37.36900
O         90.95700       87.13600      -37.00900
N         90.12200       88.97100      -37.98500
H         89.27600       89.44600      -38.28300
C         91.40300       89.66000      -38.18600
H         92.13200       88.91000      -38.49600
C         91.27100       90.67500      -39.34200
H         92.28100       90.97100      -39.63000
H         90.82600       90.18200      -40.20800
C         90.48800       91.96700      -39.02800
H         90.89700       92.43600      -38.13300
H         90.64000       92.66500      -39.85100
C         88.98000       91.79100      -38.85700
O         88.38100       90.80300      -39.25400
N         88.31200       92.75200      -38.26400
H         87.30300       92.62800      -38.18500
H         88.77000       93.56700      -37.90900
C         91.97700       90.31500      -36.91000
O         93.07500       90.86100      -36.93700
N         91.26300       90.31900      -35.79000
H         91.65800       90.74000      -34.96800
H         90.34000       89.90200      -35.77000
