98
-1 1
H         84.04800       81.95800      -32.05200
C         84.16700       82.11400      -33.12300
H         83.19700       82.32800      -33.56800
H         84.59200       81.22100      -33.57600
C         85.09900       83.28100      -33.35100
O         86.23600       83.08800      -33.76700
N         84.61800       84.49300      -33.08800
H         83.68100       84.56200      -32.69700
C         85.40000       85.73500      -33.17400
H         86.21300       85.60200      -33.88900
C         84.47800       86.85800      -33.67600
H         83.75300       87.08700      -32.89400
H         85.07600       87.75600      -33.83800
C         83.72200       86.54700      -34.95500
C         84.34600       86.71800      -36.20500
H         85.36600       87.06800      -36.25500
C         83.64600       86.42300      -37.39000
H         84.12900       86.55000      -38.34800
C         82.32100       85.95600      -37.32600
H         81.78500       85.72300      -38.23500
C         81.69700       85.78200      -36.07800
H         80.68200       85.41300      -36.02500
C         82.39600       86.07700      -34.89500
H         81.91700       85.93000      -33.93500
C         86.02100       86.14400      -31.82600
O         86.80500       87.09300      -31.76300
N         85.58000       85.51100      -30.73700
H         84.90000       84.76600      -30.88000
C         85.77100       85.88100      -29.33400
H         84.98400       85.34100      -28.81700
C         87.09600       85.32300      -28.80400
H         87.29600       84.37400      -29.30300
H         87.89700       86.01700      -29.06000
S         87.12300       85.01100      -27.01500
C         85.48700       87.36700      -29.03000
O         86.08000       87.97400      -28.14000
N         84.60500       87.97600      -29.82900
H         84.12700       87.39500      -30.50400
C         84.35800       89.42100      -29.85800
H         84.26100       89.77700      -28.83100
C         85.55600       90.15000      -30.49400
H         85.32900       91.21500      -30.55600
H         86.43300       90.02600      -29.85700
O         85.85700       89.66300      -31.79200
H         86.32700       88.80900      -31.70200
C         83.03400       89.73100      -30.56900
O         82.00900       89.91400      -29.92200
N         82.98700       89.71100      -31.89400
H         82.10900       89.87000      -32.35700
H         83.84600       89.56800      -32.40800
H         79.46000       78.16200      -30.75300
C         79.29700       79.01400      -30.09600
H         79.20400       78.67500      -29.06600
H         78.39600       79.54500      -30.39700
C         80.47800       79.94700      -30.20400
O         81.40900       79.67300      -30.94900
N         80.42800       81.04000      -29.45100
H         79.64200       81.16800      -28.83100
C         81.46900       82.07200      -29.37400
H         82.44000       81.59000      -29.50500
C         81.27800       83.06200      -30.54700
H         81.22400       82.49000      -31.47500
H         80.32700       83.58000      -30.44200
C         82.42600       84.06500      -30.70700
O         82.28700       85.07600      -31.43600
O         83.51400       83.81200      -30.15000
C         81.47100       82.72300      -27.96400
O         80.54400       82.51500      -27.17300
N         82.53000       83.46000      -27.60500
H         83.22600       83.62100      -28.33100
C         82.85400       83.88900      -26.23300
H         82.95100       82.99500      -25.61700
C         84.20900       84.61200      -26.24100
H         84.13200       85.48000      -26.89300
H         84.40500       84.98700      -25.23500
S         85.65000       83.62000      -26.73200
C         81.81300       84.79300      -25.53500
O         81.93700       85.03900      -24.33700
N         80.80500       85.30500      -26.24600
H         80.72000       85.01800      -27.21700
C         79.71300       86.10900      -25.68000
H         80.14100       86.80400      -24.95600
C         79.00200       86.93700      -26.77500
H         78.28400       86.30400      -27.30000
H         78.42600       87.71400      -26.27100
C         79.91400       87.62300      -27.81500
H         79.35400       88.43100      -28.28600
H         80.77900       88.06200      -27.31600
C         80.38800       86.68500      -28.92500
O         80.10200       85.50100      -28.93500
N         81.14900       87.15800      -29.88000
H         81.37600       88.14200      -29.90900
H         81.48700       86.47400      -30.56400
C         78.67700       85.24800      -24.92700
O         77.84700       85.77200      -24.19200
N         78.68300       83.93000      -25.09800
H         78.00900       83.37700      -24.60000
H         79.35400       83.50600      -25.72800
