98
-1 1
H         90.76600       82.55400      -31.56300
C         91.77600       82.16700      -31.44000
H         91.89200       81.74900      -30.44200
H         92.49900       82.96300      -31.60200
C         92.01700       81.07600      -32.45700
O         92.56600       80.03700      -32.11600
N         91.62900       81.34500      -33.70200
H         91.04300       82.16500      -33.81600
C         91.64300       80.42200      -34.84400
H         91.27700       81.01000      -35.68600
C         93.07300       79.99400      -35.22500
H         93.43900       79.28000      -34.48600
H         93.03700       79.47100      -36.18100
C         94.06300       81.13900      -35.34500
C         94.97100       81.40400      -34.30200
H         94.96200       80.78700      -33.41400
C         95.87800       82.47400      -34.40900
H         96.57100       82.67300      -33.60400
C         95.88000       83.28200      -35.56000
H         96.57700       84.10400      -35.64200
C         94.97400       83.02100      -36.60300
H         94.97200       83.64200      -37.48700
C         94.06600       81.95100      -36.49500
H         93.36600       81.75400      -37.29500
C         90.63200       79.26500      -34.73500
O         90.82100       78.20600      -35.33700
N         89.51200       79.48200      -34.03500
H         89.38100       80.40900      -33.64300
C         88.38200       78.54300      -34.00800
H         88.75400       77.57300      -33.67600
C         87.32900       79.01700      -32.99800
H         87.07500       80.06000      -33.19200
H         86.43000       78.41900      -33.15300
S         87.81100       78.81300      -31.26200
C         87.73800       78.31100      -35.39300
O         87.02800       77.32500      -35.57600
N         88.01200       79.17400      -36.37700
H         88.52000       80.02000      -36.13000
C         87.64600       78.99000      -37.79100
H         86.57800       78.78200      -37.85200
C         87.93400       80.27400      -38.58100
H         89.01200       80.42900      -38.64100
H         87.53900       80.16600      -39.59200
O         87.34200       81.40500      -37.97500
H         87.87100       81.61400      -37.17000
C         88.38700       77.83000      -38.48100
O         88.06400       77.47200      -39.60800
N         89.40700       77.23900      -37.86700
H         89.69300       77.54200      -36.94400
H         89.87100       76.47800      -38.33100
H         90.04400       85.24400      -31.23500
C         89.49000       86.14700      -31.48400
H         90.04600       86.73000      -32.21600
H         89.33000       86.74000      -30.58400
C         88.15400       85.76300      -32.06800
O         87.11500       86.13100      -31.53200
N         88.18300       84.99800      -33.15200
H         89.07800       84.63900      -33.45500
C         87.00100       84.41500      -33.81000
H         86.33000       85.22000      -34.11100
C         87.44100       83.65700      -35.07800
H         86.55900       83.20300      -35.53400
H         87.83800       84.38500      -35.78700
C         88.50600       82.56900      -34.86800
O         88.78000       81.83200      -35.83900
O         89.07500       82.45300      -33.75800
C         86.20000       83.47800      -32.88500
O         84.97800       83.39600      -32.99300
N         86.86800       82.85100      -31.91200
H         87.87800       82.85600      -31.99700
C         86.27400       82.02300      -30.85800
H         85.79600       81.16400      -31.33000
C         87.40300       81.51300      -29.95300
H         87.86100       82.37000      -29.46000
H         86.96500       80.88200      -29.17700
S         88.71600       80.56400      -30.76500
C         85.19600       82.71900      -29.99600
O         84.55900       82.05300      -29.18300
N         84.96800       84.03100      -30.14900
H         85.52900       84.53300      -30.82400
C         83.81500       84.72700      -29.55700
H         83.77100       84.46400      -28.49900
C         84.02900       86.24900      -29.65600
H         83.32900       86.74400      -28.98100
H         85.03900       86.48100      -29.31200
C         83.82400       86.82600      -31.06800
H         84.37500       86.22800      -31.79500
H         82.76600       86.79400      -31.32900
C         84.30500       88.26900      -31.16300
O         83.54500       89.21900      -31.09100
N         85.58900       88.49600      -31.31000
H         85.87400       89.45300      -31.36900
H         86.22700       87.70800      -31.37500
C         82.46100       84.31100      -30.17500
O         81.41100       84.58600      -29.60600
N         82.44200       83.67000      -31.33900
H         83.30700       83.47200      -31.82700
H         81.55300       83.40000      -31.72300
