98
-1 1
H         81.26800       83.47500      -29.81800
C         82.35100       83.50900      -29.90100
H         82.68100       82.85800      -30.70900
H         82.79900       83.18100      -28.96500
C         82.79500       84.93100      -30.18600
O         83.53500       85.49800      -29.39700
N         82.38200       85.54700      -31.29200
H         82.73700       86.48100      -31.43600
C         81.47800       85.02400      -32.32300
H         81.53000       83.94000      -32.33700
C         80.03500       85.42600      -31.97800
H         79.77200       85.00000      -31.00900
H         79.99300       86.51200      -31.87800
C         78.99000       84.98200      -32.98500
C         78.22800       85.93700      -33.68500
H         78.40000       86.99100      -33.52500
C         77.23800       85.52100      -34.59300
H         76.65300       86.25200      -35.13200
C         77.01900       84.15100      -34.81700
H         76.27000       83.83500      -35.53100
C         77.78800       83.19600      -34.13100
H         77.63500       82.14200      -34.31600
C         78.76600       83.61100      -33.21100
H         79.35200       82.87100      -32.68500
C         81.89000       85.52900      -33.71400
O         82.02900       86.73500      -33.91400
N         82.10300       84.61400      -34.66200
H         81.94600       83.63600      -34.42600
C         82.55700       84.92700      -36.01800
H         83.15700       85.83800      -35.99500
C         83.43100       83.78500      -36.55600
H         82.77800       82.97300      -36.87900
H         83.94200       84.15900      -37.44400
S         84.67300       83.05900      -35.45300
C         81.39000       85.14500      -36.99200
O         81.43800       86.04900      -37.82500
N         80.35400       84.30200      -36.91300
H         80.42100       83.55200      -36.22900
C         79.26600       84.20000      -37.90400
H         79.71700       84.29200      -38.89200
C         78.62400       82.80700      -37.84200
H         78.13800       82.66400      -36.87800
H         77.87600       82.72000      -38.63100
O         79.59900       81.79900      -38.02900
H         80.10800       81.71000      -37.18500
C         78.20900       85.31900      -37.81500
O         77.01900       85.09900      -38.02200
N         78.60200       86.54300      -37.49000
H         77.91500       87.27300      -37.42500
H         79.59000       86.72100      -37.36400
H         86.12200       80.71000      -31.48500
C         85.08800       80.95100      -31.72700
H         85.04900       81.89800      -32.26300
H         84.50300       81.02000      -30.81300
C         84.51700       79.86100      -32.59800
O         85.17600       78.86200      -32.85300
N         83.30100       80.07100      -33.08800
H         82.84600       80.95900      -32.88800
C         82.57000       79.16500      -33.98500
H         82.40900       78.21600      -33.47400
C         81.18800       79.76300      -34.33800
H         80.76300       79.21900      -35.18300
H         80.52700       79.60500      -33.48400
C         81.20500       81.26900      -34.63900
O         80.87400       81.67600      -35.77400
O         81.57300       82.04700      -33.73200
C         83.35500       78.85100      -35.26900
O         83.44500       77.69200      -35.66900
N         84.00500       79.85200      -35.86900
H         83.90300       80.78300      -35.49200
C         84.87600       79.66400      -37.03200
H         84.34100       79.03600      -37.74600
C         85.11500       81.01900      -37.70700
H         85.68200       80.82700      -38.61900
H         84.15300       81.43200      -38.00900
S         86.02700       82.27900      -36.76600
C         86.20200       78.93600      -36.72800
O         86.92800       78.58900      -37.65900
N         86.51800       78.67600      -35.45400
H         85.86900       78.97100      -34.73400
C         87.61400       77.79800      -35.02500
H         88.31400       77.68800      -35.85500
C         88.36100       78.44400      -33.83600
H         87.75900       79.25600      -33.42400
H         88.50700       77.72400      -33.03000
C         89.72600       79.02400      -34.24200
H         89.60000       79.63700      -35.13600
H         90.06600       79.67400      -33.43600
C         90.84000       78.00200      -34.50100
O         91.98300       78.36500      -34.71500
N         90.60800       76.70600      -34.48500
H         91.39800       76.12000      -34.67200
H         89.68200       76.32300      -34.32100
C         87.14400       76.36900      -34.68900
O         87.97100       75.52800      -34.34500
N         85.85700       76.05200      -34.77800
H         85.17400       76.74400      -35.06100
H         85.57400       75.11500      -34.55000
