98
-1 1
H         79.39500       83.61700      -29.65900
C         78.57500       83.04200      -29.23700
H         77.77800       82.95600      -29.97300
H         78.19600       83.53600      -28.34700
C         79.06700       81.65200      -28.88200
O         78.54500       80.68200      -29.41200
N         80.04100       81.48700      -27.98700
H         80.31600       80.53100      -27.83100
C         80.78000       82.52700      -27.25600
H         80.82100       83.42400      -27.86900
C         80.03700       82.88000      -25.95300
H         79.02100       83.19000      -26.19600
H         79.96200       81.97700      -25.34500
C         80.66700       83.98800      -25.12100
C         81.01200       85.22200      -25.70900
H         80.85000       85.39000      -26.76500
C         81.58500       86.24400      -24.93100
H         81.85700       87.18300      -25.39200
C         81.81400       86.04100      -23.55900
H         82.26900       86.82200      -22.96700
C         81.46800       84.81500      -22.96500
H         81.65000       84.65500      -21.91200
C         80.89800       83.79200      -23.74500
H         80.64500       82.84700      -23.28600
C         82.24100       82.09800      -27.02400
O         82.65900       81.78600      -25.90800
N         83.02500       82.04500      -28.10000
H         82.62500       82.36900      -28.98000
C         84.46100       81.75200      -28.05500
H         84.60800       80.84400      -27.46700
C         84.97100       81.48100      -29.47600
H         84.65400       82.28400      -30.14400
H         86.06100       81.47800      -29.44400
S         84.44700       79.88000      -30.15200
C         85.28500       82.85600      -27.36300
O         86.39300       82.58800      -26.90300
N         84.75000       84.07500      -27.24100
H         83.85800       84.25600      -27.70200
C         85.29800       85.15300      -26.40800
H         86.38400       85.14000      -26.50100
C         84.79900       86.50200      -26.94200
H         85.02800       86.58000      -28.00600
H         83.71800       86.56700      -26.81300
O         85.42400       87.56800      -26.25400
H         85.39300       87.34300      -25.30900
C         84.96600       85.00200      -24.90800
O         85.28300       85.88200      -24.10800
N         84.30600       83.93100      -24.48300
H         83.99700       83.22500      -25.13700
H         84.04600       83.88000      -23.51400
H         78.64800       83.59100      -34.54600
C         78.99300       83.92800      -33.57000
H         78.94000       83.10600      -32.85700
H         78.37500       84.75500      -33.22600
C         80.42300       84.39200      -33.68600
O         81.00500       84.34600      -34.76300
N         81.00400       84.79800      -32.56300
H         80.50000       84.68000      -31.69700
C         82.42100       85.18600      -32.45400
H         82.60600       86.02000      -33.13100
C         82.72200       85.66100      -31.01900
H         83.78400       85.89900      -30.94600
H         82.16600       86.58300      -30.84400
C         82.36100       84.66900      -29.90300
O         81.87400       83.55300      -30.19100
O         82.57200       85.01300      -28.72300
C         83.37700       84.05100      -32.87200
O         84.40900       84.30800      -33.48800
N         82.98000       82.79300      -32.65500
H         82.20700       82.68200      -32.00400
C         83.63600       81.58400      -33.16000
H         84.64100       81.53700      -32.74000
C         82.83700       80.36600      -32.67600
H         81.85500       80.39200      -33.15000
H         83.34500       79.46400      -33.01900
S         82.57900       80.21000      -30.88800
C         83.77200       81.51900      -34.69900
O         84.43500       80.61700      -35.21200
N         83.13300       82.42300      -35.44900
H         82.56100       83.11100      -34.96900
C         83.23000       82.56600      -36.91000
H         84.04400       81.94200      -37.27500
C         81.92000       82.08600      -37.57000
H         81.10300       82.70400      -37.19500
H         81.98300       82.23900      -38.64800
C         81.56300       80.60800      -37.31900
H         81.60100       80.38100      -36.25500
H         80.53700       80.44700      -37.65200
C         82.45700       79.63500      -38.08500
O         82.11000       79.13900      -39.14200
N         83.63300       79.31200      -37.59700
H         84.18200       78.67700      -38.14300
H         83.96600       79.71500      -36.72500
C         83.59800       84.00400      -37.33900
O         83.54500       84.34400      -38.51500
N         83.99200       84.87800      -36.41800
H         84.22000       85.81100      -36.71200
H         84.07100       84.60000      -35.44800
