101
0 1
H          7.42400       12.36500      -12.93400
C          8.49100       12.57600      -12.88300
H          8.80800       13.06700      -13.80100
H          9.04800       11.65000      -12.75700
C          8.76900       13.49500      -11.70800
O          9.31800       14.57300      -11.91800
N          8.40800       13.10700      -10.47300
C          7.82000       11.82800      -10.10200
H          8.31900       10.99600      -10.60000
H          6.75700       11.83300      -10.34400
C          8.00800       11.71500       -8.58900
H          8.98600       11.28100       -8.37200
H          7.21600       11.12700       -8.12600
C          7.97700       13.17400       -8.13100
H          8.50100       13.31200       -7.18300
H          6.94100       13.50400       -8.04200
C          8.65300       13.92200       -9.28500
H          8.17800       14.89700       -9.40800
C         10.15500       14.12800       -9.03900
O         10.95100       13.20200       -9.17500
N         10.53500       15.35000       -8.65800
H          9.82700       16.07000       -8.65700
C         11.90600       15.82600       -8.42000
H         11.80100       16.87100       -8.15000
C         12.50700       15.11700       -7.19700
H         11.76200       15.06800       -6.40200
H         12.75700       14.09500       -7.48400
S         14.00200       15.89300       -6.52400
C         12.84500       15.84400       -9.64700
O         13.69100       16.73200       -9.74200
N         12.68200       14.93300      -10.61200
H         12.02000       14.18500      -10.44200
C         13.39600       14.95800      -11.90100
H         14.40900       15.32100      -11.71800
C         13.52500       13.53500      -12.49000
H         14.10400       13.62400      -13.41100
C         14.33300       12.64300      -11.52800
H         15.24900       13.15500      -11.23000
H         13.74800       12.41300      -10.63700
H         14.61200       11.71200      -12.02100
C         12.16300       12.90000      -12.85300
H         11.58300       12.73600      -11.94400
H         11.60700       13.58400      -13.49400
C         12.28000       11.56900      -13.60400
H         12.70300       10.80100      -12.95600
H         11.28900       11.24500      -13.92300
H         12.91100       11.69300      -14.48500
C         12.77600       15.94300      -12.91000
O         13.46400       16.45700      -13.78600
N         11.49900       16.28400      -12.79600
H         10.90900       15.83000      -12.11000
H         11.11100       16.94100      -13.45000
H         20.09400       23.22600       -7.04900
C         20.12500       22.36300       -6.38700
H         20.90100       22.50300       -5.63700
H         20.32900       21.46100       -6.96100
C         18.79200       22.22000       -5.69200
O         18.72700       22.27300       -4.47000
N         17.73100       22.03100       -6.47500
H         17.88000       21.94700       -7.47000
C         16.34700       21.84500       -6.00400
H         16.37700       21.45300       -4.98700
C         15.54900       23.17000       -5.97400
H         14.54100       22.93800       -5.63000
C         16.13500       24.18100       -4.98300
H         15.46700       25.03800       -4.89200
H         16.24700       23.71600       -4.00400
H         17.11100       24.52700       -5.32400
C         15.42500       23.84200       -7.34900
H         14.93000       23.17200       -8.05300
H         14.82300       24.74700       -7.26100
H         16.40900       24.10600       -7.73400
C         15.61800       20.81300       -6.86800
O         15.99400       20.58200       -8.01700
N         14.56000       20.20500       -6.32900
H         14.29700       20.43400       -5.38500
C         13.69200       19.30200       -7.08500
H         14.30800       18.52500       -7.54000
C         12.68900       18.64200       -6.13100
H         12.29800       19.40000       -5.45200
H         11.83900       18.28200       -6.70400
S         13.33700       17.25900       -5.15300
C         12.94300       20.02800       -8.21500
O         12.26800       21.03000       -7.98100
N         13.01200       19.47300       -9.42400
H         13.56400       18.62700       -9.52400
C         12.22100       19.87900      -10.58300
H         12.10600       20.96600      -10.56600
C         13.02900       19.49900      -11.83800
H         14.00600       19.98100      -11.79700
H         13.19100       18.42400      -11.84100
C         12.37200       19.91000      -13.14400
O         11.68000       20.91000      -13.23400
N         12.53500       19.14100      -14.19300
H         13.08500       18.28900      -14.13000
H         12.12300       19.45400      -15.05200
C         10.80300       19.26000      -10.54900
O         10.55200       18.23300       -9.91900
N          9.84700       19.85900      -11.24500
H          8.92100       19.46900      -11.23300
H         10.08000       20.65800      -11.82000
