101
0 1
H          5.01000       22.55700      -18.23100
C          5.94200       22.09300      -17.91200
H          6.77200       22.76300      -18.13100
H          6.07600       21.15000      -18.44000
C          5.87900       21.83400      -16.41800
O          4.89400       22.21400      -15.79500
N          6.91700       21.23100      -15.80900
C          8.14200       20.80100      -16.46900
H          8.57900       21.60400      -17.06300
H          7.93000       19.93900      -17.10300
C          9.09600       20.39200      -15.34900
H          9.62600       21.26800      -14.97500
H          9.79700       19.62200      -15.67300
C          8.13600       19.88200      -14.27800
H          8.60300       19.86100      -13.29300
H          7.79300       18.88200      -14.54600
C          6.96400       20.87100      -14.38200
H          6.04300       20.35200      -14.11600
C          7.10600       22.07500      -13.42200
O          7.60800       21.93300      -12.31100
N          6.66200       23.26800      -13.82800
H          6.14100       23.28500      -14.69700
C          6.96900       24.56500      -13.21600
H          8.04000       24.73100      -13.28200
C          6.25800       25.64000      -14.04700
H          5.18300       25.50000      -13.92900
H          6.50500       26.62100      -13.64000
S          6.61300       25.66100      -15.82900
C          6.58300       24.71800      -11.73100
O          7.11100       25.60100      -11.05900
N          5.67000       23.88300      -11.22400
H          5.31300       23.16800      -11.83700
C          5.23400       23.86200       -9.81600
H          5.09300       24.88900       -9.47500
C          3.86700       23.13100       -9.72100
H          3.97700       22.15000      -10.18600
C          3.41100       22.90900       -8.26500
H          4.11900       22.27100       -7.73600
H          3.34000       23.86500       -7.74500
H          2.44600       22.40800       -8.23200
C          2.78200       23.92200      -10.49800
H          2.57700       24.86000       -9.98000
H          3.15000       24.16900      -11.49300
C          1.46300       23.16300      -10.69800
H          0.81900       23.73600      -11.36600
H          1.65800       22.18800      -11.14700
H          0.94400       23.03300       -9.75000
C          6.30500       23.24100       -8.89400
O          6.37900       23.56100       -7.71500
N          7.17100       22.37100       -9.39800
H          7.88200       22.00300       -8.78800
H          7.17300       22.16000      -10.38700
H          7.73400       27.98500      -12.03400
C          8.69500       28.48400      -11.94600
H          8.85600       28.78100      -10.91100
H          8.71400       29.36400      -12.58800
C          9.79600       27.54100      -12.36800
O         10.52200       27.82700      -13.31300
N          9.91400       26.40300      -11.68500
H          9.20900       26.21000      -10.98300
C         10.96700       25.38500      -11.90400
H         11.89200       25.91600      -12.13300
C         11.24400       24.56300      -10.62600
H         11.98200       23.79600      -10.86200
C         11.85500       25.45300       -9.53600
H         12.11700       24.84500       -8.67000
H         12.76000       25.92900       -9.91500
H         11.14700       26.22300       -9.22900
C         10.00200       23.87600      -10.04700
H          9.53700       23.24500      -10.80300
H         10.29300       23.24700       -9.20500
H          9.27800       24.61300       -9.69900
C         10.70000       24.50900      -13.13900
O         10.73000       23.28100      -13.09500
N         10.40800       25.14200      -14.27800
H         10.40800       26.15800      -14.25500
C         10.01500       24.47400      -15.52400
H          9.15200       23.84100      -15.31800
C          9.59800       25.54200      -16.54000
H         10.48700       26.11000      -16.82000
H          9.23300       25.04200      -17.43900
S          8.33800       26.73100      -15.99900
C         11.11300       23.56600      -16.12000
O         10.83800       22.77800      -17.02000
N         12.34400       23.65500      -15.61000
H         12.48500       24.32300      -14.86200
C         13.46100       22.75200      -15.88900
H         13.51700       22.57900      -16.96600
C         14.74600       23.45700      -15.42300
H         15.60900       22.84200      -15.67700
H         14.85000       24.41100      -15.93900
C         14.73000       23.72200      -13.92500
O         14.02200       24.58700      -13.43700
N         15.46300       22.96100      -13.14900
H         15.99200       22.20000      -13.53700
H         15.41100       23.14400      -12.16300
C         13.33900       21.36800      -15.21000
O         14.15700       20.49100      -15.46100
N         12.38600       21.14900      -14.31200
H         11.75100       21.89100      -14.04500
H         12.34400       20.24700      -13.86900
