98
0 1
H         93.92000      112.93900       84.38600
C         94.82500      112.43900       84.72800
H         95.35000      113.07600       85.43800
H         95.46900      112.22700       83.87600
C         94.44700      111.14300       85.40400
O         93.26900      110.81800       85.49800
N         95.44500      110.40600       85.88500
H         96.39300      110.74400       85.79600
C         95.26000      109.13000       86.58400
H         94.32200      109.16000       87.13500
C         95.19300      107.97800       85.57300
H         94.39400      108.16200       84.85400
H         96.14400      107.90700       85.04200
O         94.94300      106.76400       86.25100
H         95.43200      106.04100       85.80800
C         96.38500      108.86300       87.58200
O         97.54900      109.12200       87.28600
N         96.03500      108.29900       88.73700
H         95.04800      108.12600       88.89800
C         96.97100      107.74000       89.71400
H         97.93200      108.24800       89.62100
C         96.42800      108.01000       91.12400
H         95.42000      107.60600       91.20700
H         97.05900      107.47100       91.83100
S         96.43200      109.75600       91.62900
C         97.23500      106.23600       89.48300
O         97.95300      105.60900       90.25900
N         96.64700      105.64400       88.43600
H         96.05500      106.22100       87.84900
C         96.73200      104.21500       88.09400
H         97.51200      103.75300       88.69900
C         95.40200      103.49600       88.41400
H         94.60800      103.93300       87.80600
C         95.47200      101.99400       88.10200
H         94.53000      101.51800       88.37600
H         95.62700      101.83400       87.03500
H         96.28200      101.53100       88.66500
C         95.01000      103.64600       89.89100
H         95.81600      103.28600       90.53100
H         94.81000      104.69300       90.12100
H         94.10300      103.07900       90.09700
C         97.11700      104.04600       86.62000
O         96.55200      104.68500       85.73500
N         98.06900      103.17300       86.32100
H         98.53400      102.66000       87.05100
H         98.32600      103.06200       85.35400
H         90.85300      112.35000       86.54000
C         91.20700      112.41200       87.56800
H         90.66200      113.18800       88.10100
H         92.27200      112.63600       87.57000
C         90.98000      111.08500       88.25100
O         90.33800      111.02900       89.29600
N         91.51900      110.01300       87.67200
H         92.04200      110.16600       86.81400
C         91.40700      108.63500       88.17200
H         90.38400      108.47800       88.51700
C         91.66800      107.63200       87.02700
H         92.55100      107.93900       86.47400
H         91.88000      106.66100       87.47500
C         90.50700      107.42600       86.03400
H         89.61300      107.13800       86.58700
C         90.18500      108.65700       85.18300
H         91.09000      109.02800       84.70200
H         89.45100      108.39800       84.41900
H         89.75500      109.43800       85.80700
C         90.86800      106.28600       85.07900
H         91.06400      105.37700       85.64600
H         90.03900      106.09700       84.39600
H         91.75700      106.54800       84.50500
C         92.31700      108.41400       89.40200
O         93.29800      107.67200       89.36600
N         91.98600      109.09900       90.49600
H         91.22900      109.76700       90.38400
C         92.69900      109.09900       91.78000
H         93.41300      108.27600       91.79200
C         93.47900      110.41500       91.90600
H         92.77900      111.24300       91.78700
H         93.90300      110.48400       92.90900
S         94.82900      110.63500       90.71800
C         91.75800      108.87000       92.98100
O         92.14500      109.07500       94.12900
N         90.51100      108.45900       92.73100
H         90.25400      108.28200       91.77000
C         89.44400      108.25200       93.72800
H         89.48100      109.06900       94.44800
C         88.06900      108.29900       93.03600
H         87.28900      108.12900       93.77900
C         87.79600      109.63800       92.35000
H         86.78300      109.63400       91.94800
H         87.88500      110.44900       93.07300
H         88.49700      109.80300       91.53100
O         88.00000      107.29300       92.05200
H         87.98800      106.45400       92.53300
C         89.62400      106.94800       94.52400
O         88.77000      106.06700       94.51400
N         90.75300      106.77300       95.19600
H         90.88500      105.91700       95.70700
H         91.46100      107.49600       95.17300
