98
0 1
H         92.28200       95.62300       91.62500
C         91.87000       96.43900       92.21500
H         92.23200       96.38000       93.24000
H         90.78200       96.37900       92.21100
C         92.28900       97.75500       91.60700
O         91.44300       98.54500       91.20900
N         93.60000       97.99400       91.54000
H         94.22500       97.25000       91.80700
C         94.19500       99.18400       90.90200
H         95.26300       99.17300       91.11800
C         94.04800       99.10200       89.37700
H         92.99000       99.17200       89.13200
H         94.57600       99.93400       88.90900
O         94.55700       97.88600       88.86800
H         94.24700       97.81700       87.95600
C         93.65800      100.52500       91.43700
O         93.46800      101.46900       90.67400
N         93.35000      100.60500       92.73500
H         93.47300       99.78000       93.29800
C         92.71400      101.76400       93.37100
H         91.93300      102.14200       92.73100
C         92.02700      101.29800       94.66200
H         92.80300      101.01900       95.37700
H         91.46900      102.13100       95.09100
S         90.89500       99.87900       94.47500
C         93.68500      102.94100       93.55200
O         94.37000      103.05300       94.56700
N         93.74400      103.82200       92.54800
H         93.16600      103.64200       91.73100
C         94.64400      104.98700       92.50300
H         95.65400      104.64500       92.72700
C         94.66200      105.61600       91.09200
H         93.65700      105.94600       90.83200
C         95.60300      106.82700       91.01900
H         95.25000      107.62300       91.67400
H         96.61400      106.53700       91.30600
H         95.62000      107.21700       90.00100
C         95.12600      104.60900       90.03000
H         94.41900      103.78400       89.96100
H         95.16400      105.09000       89.05300
H         96.11200      104.21900       90.28100
C         94.24800      106.02600       93.55700
O         93.18900      106.64100       93.48100
N         95.09500      106.25900       94.54900
H         95.93300      105.70800       94.63400
H         94.83900      106.93800       95.24600
H         90.66000      104.69200       96.35900
C         91.12200      105.14400       95.48300
H         92.13900      104.77600       95.37100
H         91.13800      106.22700       95.59200
C         90.31900      104.78000       94.25700
O         89.41700      103.95600       94.33700
N         90.64500      105.37900       93.11300
H         91.43300      106.02100       93.12500
C         89.97800      105.11500       91.83500
H         88.90100      105.10200       92.01400
C         90.28400      106.27400       90.86200
H         90.26000      107.20500       91.43100
H         91.29100      106.16500       90.46000
C         89.27800      106.42600       89.70200
H         88.28200      106.57200       90.12000
C         89.64100      107.66700       88.88500
H         90.62700      107.54200       88.43600
H         88.90400      107.81900       88.09700
H         89.64700      108.54600       89.52900
C         89.23000      105.23500       88.74300
H         88.58400      105.46800       87.89600
H         90.23100      105.01400       88.37300
H         88.82100      104.35900       89.24100
C         90.39300      103.73200       91.30300
O         91.43200      103.59200       90.65600
N         89.60800      102.70200       91.63000
H         88.85800      102.88800       92.28300
C         89.85500      101.29600       91.28600
H         90.85700      101.01700       91.58300
C         88.92000      100.41100       92.11200
H         87.89100      100.62800       91.82100
H         89.11900       99.36600       91.87300
S         89.07100      100.63300       93.91500
C         89.79900      101.04600       89.77200
O         88.74900      100.77600       89.19000
N         90.96200      101.18900       89.13400
H         91.76700      101.42100       89.70800
C         91.15900      101.19100       87.68000
H         90.29900      101.67500       87.21700
C         92.39900      102.03600       87.32900
H         93.29300      101.56600       87.74000
C         92.58200      102.25500       85.82700
H         91.68300      102.70400       85.40500
H         93.42700      102.92400       85.66200
H         92.78800      101.31100       85.32400
O         92.26600      103.33000       87.88100
H         92.13200      103.25700       88.83800
C         91.22100       99.75500       87.13600
O         92.26400       99.24600       86.73400
N         90.10400       99.04300       87.18400
H         90.12300       98.08800       86.87000
H         89.28000       99.44900       87.60700
