98
0 1
H         88.46000       99.77500       98.06800
C         88.08700      100.06200       97.08700
H         87.03200      100.32200       97.15900
H         88.21100       99.23700       96.38700
C         88.85600      101.26100       96.58800
O         88.27300      102.29900       96.30900
N         90.16900      101.11100       96.43500
H         90.57200      100.20500       96.62500
C         91.11400      102.14500       95.97100
H         90.90700      103.06500       96.51700
C         92.53300      101.68700       96.33300
H         93.26500      102.40400       95.96000
H         92.62800      101.62900       97.41900
O         92.78000      100.41000       95.77800
H         93.75200      100.29100       95.74500
C         91.00700      102.48700       94.46900
O         91.98700      102.89700       93.84600
N         89.83400      102.29400       93.86500
H         89.05200      102.05300       94.46100
C         89.56300      102.42700       92.43200
H         90.43500      102.12100       91.87300
C         88.42800      101.46100       92.06800
H         87.51800      101.80900       92.56100
H         88.25300      101.50200       90.99200
S         88.70100       99.72400       92.54800
C         89.31200      103.88600       92.02300
O         88.19300      104.27600       91.69500
N         90.36500      104.70700       92.07800
H         91.25800      104.31000       92.35000
C         90.29300      106.15400       91.81200
H         89.45500      106.54400       92.39000
C         91.55800      106.89100       92.30000
H         91.41300      107.95600       92.11500
C         91.75300      106.71200       93.81100
H         90.84700      107.00600       94.34000
H         91.98600      105.67400       94.04500
H         92.57700      107.34100       94.15000
C         92.84400      106.46500       91.58200
H         93.03600      105.40400       91.74000
H         92.76000      106.66000       90.51300
H         93.68900      107.03500       91.96900
C         89.99400      106.47600       90.34000
O         90.38300      105.76100       89.42200
N         89.31100      107.58200       90.08000
H         88.97500      108.16200       90.83000
H         89.10600      107.79600       89.11800
H         88.27300      103.45600       89.15300
C         88.47400      102.79200       88.31400
H         88.41900      103.35700       87.38600
H         87.74200      101.98600       88.29900
C         89.85700      102.20400       88.45200
O         90.02600      100.99200       88.39200
N         90.85700      103.06000       88.64300
H         90.62800      104.04500       88.73600
C         92.26300      102.67600       88.79100
H         92.48900      101.88300       88.07700
C         93.16300      103.88900       88.47200
H         92.96000      104.66800       89.20600
H         94.20500      103.58700       88.59200
C         92.98300      104.49700       87.06800
H         91.95200      104.82400       86.93700
C         93.89000      105.72000       86.92300
H         94.93500      105.42900       87.03500
H         93.74400      106.17300       85.94200
H         93.63700      106.45400       87.68800
C         93.33300      103.50800       85.95500
H         93.25500      104.00200       84.98600
H         94.34900      103.13600       86.08800
H         92.63400      102.67200       85.96600
C         92.52800      102.10400       90.19400
O         93.04000      102.80200       91.06900
N         92.13000      100.84700       90.42000
H         91.61600      100.39100       89.67500
C         92.23000      100.13500       91.70300
H         91.71100      100.69700       92.47200
C         91.50800       98.79000       91.58500
H         92.05800       98.16900       90.87800
H         91.53600       98.29000       92.55400
S         89.77700       98.87700       91.02800
C         93.68800      100.00400       92.17600
O         94.40300       99.06500       91.83300
N         94.13600      101.00500       92.93100
H         93.47200      101.74000       93.15800
C         95.54700      101.25200       93.23600
H         96.14300      100.98600       92.36300
C         95.74800      102.75300       93.49000
H         95.05300      103.08900       94.26100
C         97.17100      103.12200       93.90800
H         97.39700      102.70400       94.88900
H         97.88400      102.74700       93.17300
H         97.25700      104.20700       93.96700
O         95.49300      103.45800       92.29500
H         94.59200      103.25100       91.98900
C         96.02500      100.40000       94.41400
O         95.42800      100.40700       95.48700
N         97.12100       99.67100       94.25400
H         97.43300       99.10300       95.02400
H         97.58600       99.64500       93.36100
