110
1 1
H         23.13900      -16.68100       48.39100
C         23.65500      -15.81000       48.79200
H         24.68200      -15.79200       48.43100
H         23.65000      -15.85700       49.88000
C         22.94800      -14.55500       48.33900
O         22.51800      -13.76800       49.17800
N         22.84200      -14.39100       47.01900
H         23.25400      -15.12000       46.45700
C         22.33400      -13.21100       46.29300
H         22.43800      -13.44300       45.23200
C         20.82400      -13.01600       46.51800
H         20.29100      -13.91400       46.20200
H         20.62800      -12.85200       47.57800
C         20.29400      -11.83900       45.74000
N         20.41100      -11.68900       44.35700
C         19.95500      -10.45900       44.08000
H         19.91200      -10.02800       43.08700
N         19.59400       -9.82800       45.21000
H         19.27800       -8.86900       45.26300
C         19.80300      -10.68300       46.27100
H         19.65500      -10.47300       47.32100
C         23.13500      -11.90900       46.49600
O         23.69100      -11.64100       47.56000
N         23.18600      -11.07100       45.45600
H         22.62000      -11.30700       44.64900
C         23.84200       -9.76000       45.44400
H         24.80900       -9.82600       45.93100
C         24.11400       -9.35800       43.99300
H         23.15700       -9.22600       43.48700
H         24.63000       -8.39700       43.98000
S         25.10000      -10.56300       43.04800
C         23.03900       -8.72900       46.25000
O         22.22700       -7.96800       45.72500
N         23.25700       -8.75500       47.56800
H         23.91000       -9.45600       47.89600
C         22.59100       -7.91000       48.56900
H         21.51600       -7.93400       48.38200
C         22.87200       -8.50000       49.96400
H         23.94900       -8.62700       50.08000
H         22.52600       -7.80500       50.73100
C         22.15000       -9.84900       50.16300
H         21.08300       -9.65100       50.26800
H         22.27200      -10.47900       49.28600
C         22.62000      -10.63900       51.39500
H         22.47700      -10.01800       52.28100
H         21.97800      -11.51600       51.50300
C         24.08500      -11.10900       51.35800
H         24.74800      -10.24400       51.29000
H         24.29800      -11.61900       52.30200
N         24.36800      -12.04000       50.24100
H         23.62900      -12.72700       50.11200
H         24.44700      -11.55800       49.34500
H         25.24500      -12.53300       50.38900
C         23.03600       -6.44500       48.45800
O         24.19100       -6.15400       48.16700
N         22.14500       -5.50800       48.73400
H         22.43100       -4.54500       48.65700
H         21.19900       -5.75600       48.96500
H         31.79500       -8.19100       47.57200
C         31.35300       -9.05800       47.08300
H         32.05800       -9.88800       47.11700
H         31.12600       -8.81700       46.04600
C         30.08700       -9.45000       47.80400
O         29.97600      -10.56500       48.30600
N         29.10300       -8.55200       47.83200
H         29.23600       -7.66700       47.36300
C         27.82600       -8.75500       48.55000
H         28.05700       -9.00300       49.58500
C         26.96900       -7.48300       48.56100
H         26.09200       -7.67300       49.18000
C         27.69200       -6.25900       49.11900
H         28.51200       -5.96400       48.46300
H         26.98800       -5.43000       49.19400
H         28.08200       -6.48000       50.11200
O         26.54400       -7.18500       47.25700
H         25.75300       -6.62500       47.36400
C         26.97200       -9.90300       48.00100
O         26.04200      -10.33800       48.68100
N         27.30600      -10.42900       46.81700
H         28.02900       -9.95900       46.29400
C         26.76300      -11.66800       46.25200
H         25.69100      -11.59100       46.17500
C         27.30400      -11.83400       44.82900
H         28.37900      -12.01100       44.88700
H         26.84800      -12.71700       44.37700
S         27.02600      -10.41100       43.72600
C         27.02800      -12.89600       47.13900
O         26.20200      -13.80500       47.18100
N         28.12100      -12.87900       47.91200
H         28.76600      -12.10400       47.80600
C         28.28800      -13.71400       49.10100
H         27.60500      -14.56400       49.05900
C         29.73300      -14.25400       49.19800
H         30.43200      -13.41800       49.15100
H         29.84600      -14.70700       50.18400
C         30.17800      -15.31500       48.16700
H         31.16300      -15.66100       48.48000
C         29.25100      -16.53100       48.14100
H         28.27400      -16.26000       47.73900
H         29.68700      -17.30500       47.51000
H         29.13300      -16.92800       49.14900
C         30.32300      -14.77900       46.74200
H         29.34700      -14.58200       46.30300
H         30.92000      -13.86700       46.74800
H         30.83100      -15.52400       46.12900
C         27.88500      -12.89500       50.33700
O         26.85400      -13.14600       50.95400
N         28.62200      -11.84000       50.66000
H         29.42100      -11.59400       50.09000
H         28.37700      -11.30700       51.47700
