110
1 1
H         35.44100       -1.34700       51.74800
C         34.90100       -1.15100       52.67300
H         34.62400       -0.10000       52.72500
H         35.53900       -1.39900       53.52100
C         33.65800       -2.00600       52.72300
O         33.50700       -2.82000       53.62900
N         32.76400       -1.81600       51.74800
H         32.96600       -1.11100       51.05800
C         31.52200       -2.59100       51.62200
H         31.12700       -2.74400       52.62900
C         30.43900       -1.79800       50.87000
H         30.22200       -0.88200       51.42000
H         30.80700       -1.52400       49.88100
C         29.15500       -2.57700       50.71800
N         28.69800       -3.53600       51.62200
C         27.51500       -3.95500       51.14800
H         26.88100       -4.68700       51.63300
N         27.22800       -3.33300       49.99200
H         26.38200       -3.47600       49.45500
C         28.25000       -2.45400       49.70500
H         28.31000       -1.77500       48.86500
C         31.76500       -4.01200       51.08500
O         32.12500       -4.88400       51.86800
N         31.56700       -4.26800       49.78400
H         31.24900       -3.50600       49.20800
C         31.80000       -5.56400       49.12100
H         31.22700       -5.53500       48.19400
C         33.28000       -5.68200       48.70200
H         33.39700       -6.61700       48.15200
H         33.52000       -4.87300       48.01200
S         34.50800       -5.66300       50.03700
C         31.24900       -6.80600       49.87300
O         31.82300       -7.89300       49.79300
N         30.14000       -6.65600       50.61200
H         29.72100       -5.73500       50.65400
C         29.51900       -7.70300       51.44100
H         30.03500       -8.65100       51.28400
C         29.65400       -7.31900       52.92900
H         29.45800       -6.25100       53.04900
H         28.91000       -7.86800       53.50900
C         31.04500       -7.66700       53.48700
H         31.13500       -8.75000       53.50800
H         31.82100       -7.29500       52.82100
C         31.28200       -7.14600       54.91700
H         30.36100       -7.25500       55.49200
H         32.03400       -7.77200       55.39900
C         31.74700       -5.68300       54.98700
H         31.00000       -5.05100       54.49800
H         31.81000       -5.38700       56.03700
N         33.06500       -5.47700       54.33800
H         33.80000       -6.08100       54.70100
H         32.98000       -5.63900       53.33900
H         33.37300       -4.50900       54.40800
C         28.06100       -7.92900       51.03300
O         27.26700       -6.99800       50.99900
N         27.68600       -9.16000       50.73600
H         26.73000       -9.31800       50.46600
H         28.37900       -9.89500       50.67900
H         35.31900       -7.07500       58.22900
C         35.99300       -6.41600       57.68400
H         37.00200       -6.51100       58.08100
H         35.66200       -5.38300       57.79200
C         35.99200       -6.78800       56.22100
O         35.61500       -5.97600       55.38400
N         36.38900       -8.02600       55.92700
H         36.65100       -8.61700       56.69900
C         36.53400       -8.58700       54.56600
H         37.37200       -8.07900       54.08800
C         36.90300      -10.08400       54.64900
H         37.83900      -10.17100       55.20300
C         35.85500      -10.95500       55.34200
H         35.74300      -10.65400       56.38300
H         34.89300      -10.86600       54.84000
H         36.17400      -11.99800       55.31700
O         37.10600      -10.63500       53.37000
H         36.25200      -10.95100       53.03000
C         35.31100       -8.38600       53.65800
O         34.18500       -8.20900       54.12500
N         35.52200       -8.46300       52.34300
H         36.46700       -8.62500       52.02800
C         34.45000       -8.73600       51.38700
H         33.67200       -7.98300       51.51100
C         35.00200       -8.65100       49.95800
H         35.70300       -9.47300       49.80400
H         34.17600       -8.79100       49.26000
S         35.84800       -7.10500       49.52900
C         33.83300      -10.12500       51.64300
O         34.53000      -11.02600       52.11500
N         32.54900      -10.30600       51.31100
H         32.07100       -9.53500       50.85300
C         31.80700      -11.56900       51.45900
H         32.50800      -12.40300       51.41000
C         31.06000      -11.62500       52.81100
H         30.36800      -10.78400       52.84700
H         30.45300      -12.53200       52.82900
C         31.92600      -11.60900       54.08500
H         32.60800      -10.76200       54.06000
C         31.02900      -11.44800       55.31300
H         31.64300      -11.41600       56.21300
H         30.46500      -10.51900       55.24300
H         30.33400      -12.28600       55.38400
C         32.72100      -12.90500       54.25100
H         33.29100      -12.87100       55.17900
H         32.04800      -13.76200       54.27800
H         33.42200      -13.02300       53.42600
C         30.79300      -11.73500       50.31900
O         29.98300      -10.84900       50.06600
N         30.77900      -12.88300       49.65700
H         31.43900      -13.60900       49.88200
H         30.10500      -13.00000       48.91800
