115
1 1
H        -11.61600      -13.69200       16.09700
C        -11.56700      -12.62000       15.91500
H        -12.08400      -12.39000       14.98500
H        -10.52600      -12.30800       15.85100
C        -12.25100      -11.89600       17.04800
O        -12.81600      -12.52800       17.93100
N        -12.18700      -10.56300       17.03800
H        -11.71800      -10.13200       16.25600
C        -12.90400       -9.66800       17.96900
H        -12.46900       -8.67600       17.84000
C        -14.39000       -9.55800       17.57500
H        -14.87600      -10.50500       17.79800
H        -14.86200       -8.78100       18.17600
C        -14.62700       -9.22800       16.09600
H        -14.24000      -10.03800       15.47800
H        -15.70300       -9.17400       15.92800
S        -13.88600       -7.66600       15.54900
C        -14.42600       -7.66400       13.81900
H        -14.03700       -8.54500       13.31000
H        -15.51600       -7.67100       13.77400
H        -14.05300       -6.76700       13.32300
C        -12.72000       -9.99400       19.47000
O        -13.59900       -9.70900       20.29100
N        -11.60200      -10.62600       19.83400
H        -10.94600      -10.87600       19.11200
C        -11.27500      -11.00600       21.20600
H        -12.13600      -11.50500       21.63700
C        -10.11700      -12.00600       21.20100
H         -9.24600      -11.52400       20.75300
H         -9.86100      -12.25400       22.23200
S        -10.42600      -13.55700       20.31700
C        -10.93100       -9.78300       22.07000
O        -10.22200       -8.88500       21.62200
N        -11.41700       -9.75500       23.31700
H        -11.97900      -10.54000       23.63000
C        -11.15500       -8.67700       24.29200
H        -10.09700       -8.41600       24.22400
C        -11.96300       -7.39600       23.95200
H        -12.06100       -6.78000       24.84600
H        -11.36500       -6.82000       23.24200
C        -13.35400       -7.57000       23.31000
H        -13.75900       -6.57900       23.10300
H        -13.23500       -8.07100       22.35100
C        -14.37000       -8.33200       24.17400
H        -13.94900       -9.27500       24.51500
H        -14.61200       -7.72800       25.05000
C        -15.65700       -8.64100       23.40300
H        -16.39900       -9.00900       24.11900
H        -16.04700       -7.72600       22.94900
N        -15.42900       -9.68200       22.37500
H        -14.91400       -9.34500       21.56400
H        -14.86900      -10.43700       22.75900
H        -16.30400      -10.11600       22.09200
C        -11.38100       -9.15000       25.73100
O        -12.11200      -10.10200       25.96800
N        -10.77200       -8.49200       26.70400
H        -10.17100       -7.71300       26.49200
H        -10.91100       -8.80800       27.65000
H        -19.62300      -13.53300       23.69600
C        -19.06400      -13.24100       22.80900
H        -19.61100      -12.46800       22.27100
H        -18.92600      -14.10200       22.15600
C        -17.71300      -12.70400       23.21200
O        -17.35800      -11.58400       22.84900
N        -16.93900      -13.50400       23.94900
H        -17.31100      -14.40100       24.22400
C        -15.56500      -13.15600       24.36600
H        -15.62700      -12.22200       24.92200
C        -15.00700      -14.24300       25.31900
H        -15.73400      -14.38400       26.12100
C        -14.82100      -15.61000       24.63300
H        -14.56200      -16.36000       25.38300
H        -15.74100      -15.93000       24.14400
H        -14.01200      -15.57000       23.90200
C        -13.66700      -13.83800       25.97200
H        -12.94500      -13.55000       25.20800
H        -13.26100      -14.69700       26.50800
C        -13.81700      -12.69800       26.98700
H        -12.85000      -12.50100       27.45100
H        -14.15800      -11.78800       26.49400
H        -14.52900      -12.98000       27.76200
C        -14.65600      -12.89300       23.15100
O        -13.91200      -11.91100       23.13700
N        -14.85000      -13.67700       22.09100
H        -15.54300      -14.40400       22.19900
C        -14.36500      -13.51300       20.72100
H        -13.92900      -12.52400       20.57800
C        -13.30400      -14.58700       20.44300
H        -13.77100      -15.56200       20.58800
H        -13.00500      -14.53300       19.39600
S        -11.79800      -14.55100       21.45600
C        -15.56900      -13.67600       19.76700
O        -16.55800      -14.30900       20.14500
N        -15.50100      -13.13300       18.54800
H        -14.62000      -12.70800       18.26900
C        -16.53600      -13.25200       17.50600
H        -17.13100      -14.14400       17.71100
C        -17.50300      -12.03500       17.46700
H        -16.95800      -11.16400       17.10300
C        -18.63000      -12.30400       16.45100
H        -19.20800      -13.18000       16.75100
H        -19.29700      -11.44300       16.39600
H        -18.22400      -12.46100       15.45200
C        -18.15700      -11.66600       18.82200
H        -19.14100      -11.23000       18.64500
H        -18.31100      -12.56000       19.42500
C        -17.36500      -10.62000       19.61900
H        -17.92300      -10.36000       20.51800
H        -16.39000      -11.00700       19.90600
H        -17.23400       -9.71900       19.01800
C        -15.85500      -13.43800       16.14200
O        -15.03300      -12.62600       15.73200
N        -16.20200      -14.48500       15.40500
H        -15.76100      -14.60100       14.50700
H        -16.88200      -15.14400       15.74400
