115
1 1
H         -4.79800       -7.08100       18.17900
C         -5.36900       -6.19300       18.44700
H         -4.84800       -5.30300       18.09600
H         -5.48100       -6.14400       19.52900
C         -6.73500       -6.25700       17.81000
O         -7.74400       -6.27400       18.50500
N         -6.77600       -6.32700       16.47900
H         -5.89700       -6.28700       15.98000
C         -8.00900       -6.24200       15.67700
H         -8.46400       -5.26700       15.85700
C         -7.67500       -6.34300       14.17700
H         -7.24000       -7.32000       13.95900
H         -8.60900       -6.26100       13.61800
C         -6.73000       -5.24500       13.66700
H         -6.82300       -5.20800       12.58100
H         -7.05600       -4.28200       14.06100
S         -4.97000       -5.48400       14.05300
C         -4.27000       -4.04800       13.19600
H         -3.18800       -4.03700       13.33100
H         -4.49800       -4.10800       12.13200
H         -4.69300       -3.13100       13.60700
C         -9.07000       -7.29800       16.04000
O        -10.26000       -7.05600       15.86000
N         -8.66900       -8.43400       16.62000
H         -7.68300       -8.55100       16.79000
C         -9.58100       -9.45900       17.14000
H        -10.23900       -9.77200       16.32800
C         -8.74100      -10.66900       17.57100
H         -9.41800      -11.47800       17.84800
H         -8.16600      -11.00900       16.70800
S         -7.58300      -10.38900       18.94600
C        -10.48900       -8.97700       18.29400
O        -11.44700       -9.67300       18.64000
N        -10.19300       -7.81400       18.89600
H         -9.34100       -7.34000       18.60700
C        -11.00100       -7.14700       19.92900
H        -11.67100       -7.89300       20.35100
C        -10.07800       -6.63100       21.05700
H         -9.04700       -6.92700       20.85600
H        -10.09800       -5.54000       21.09600
C        -10.45600       -7.19900       22.43400
H        -10.44400       -8.28500       22.36400
H         -9.69300       -6.89900       23.15400
C        -11.82800       -6.72600       22.94900
H        -11.80000       -5.64200       23.07500
H        -12.60700       -6.96200       22.22600
C        -12.19500       -7.37600       24.28800
H        -11.38200       -7.20900       25.00000
H        -13.09400       -6.88900       24.67600
N        -12.44600       -8.82600       24.13100
H        -11.62300       -9.30600       23.77300
H        -12.66100       -9.28700       25.01200
H        -13.18400       -9.01900       23.45700
C        -11.91300       -6.03700       19.37600
O        -12.66200       -5.43400       20.13200
N        -11.89500       -5.76000       18.08100
H        -11.29200       -6.27300       17.45300
H        -12.50000       -5.03100       17.74100
H        -13.71800       -8.29700       19.04500
C        -14.39000       -8.40700       19.89300
H        -15.41300       -8.48200       19.52900
H        -14.31000       -7.54300       20.55000
C        -14.04700       -9.66200       20.65800
O        -13.85500       -9.61700       21.87100
N        -14.00300      -10.78400       19.94200
H        -14.09500      -10.69300       18.94200
C        -14.03900      -12.14400       20.50400
H        -14.84700      -12.17100       21.23600
C        -14.39200      -13.17500       19.40200
H        -14.52000      -14.14400       19.88900
C        -15.75200      -12.83000       18.76800
H        -15.68800      -11.91900       18.17300
H        -16.07000      -13.64800       18.11900
H        -16.50500      -12.70200       19.54700
C        -13.31400      -13.32500       18.29800
H        -12.73500      -12.40600       18.20100
H        -13.80100      -13.50300       17.33800
C        -12.35800      -14.50300       18.53300
H        -12.92300      -15.43600       18.56100
H        -11.64000      -14.55200       17.71400
H        -11.81600      -14.38500       19.46900
C        -12.77800      -12.57500       21.26700
O        -12.88600      -13.40800       22.16600
N        -11.58700      -12.04700       20.95500
H        -11.53200      -11.31700       20.25500
C        -10.38000      -12.45300       21.68400
H        -10.40100      -13.54100       21.77000
C         -9.11300      -12.11600       20.88800
H         -8.25300      -12.55400       21.39600
H         -9.19600      -12.60200       19.91600
S         -8.75900      -10.36500       20.61200
C        -10.40600      -11.88100       23.11200
O        -10.58900      -10.67900       23.30800
N        -10.28400      -12.75300       24.12000
H        -10.13100      -13.72100       23.88200
C        -10.59600      -12.44800       25.53000
H        -10.58600      -13.39800       26.06300
C         -9.50700      -11.56000       26.19500
H         -9.61900      -10.54200       25.81800
C         -9.69800      -11.50900       27.72300
H         -9.69100      -12.51300       28.14900
H         -8.89700      -10.92600       28.17900
H        -10.64300      -11.03000       27.97700
C         -8.05600      -11.99500       25.86900
H         -7.88000      -11.88000       24.79900
H         -7.36800      -11.31400       26.37200
C         -7.68400      -13.43100       26.27000
H         -8.33100      -14.14900       25.76700
H         -6.65200      -13.62700       25.97700
H         -7.76600      -13.55900       27.34900
C        -12.04100      -11.91300       25.66700
O        -12.29700      -10.78000       26.07000
N        -13.02200      -12.68300       25.21900
H        -13.96900      -12.34600       25.27500
H        -12.81800      -13.56500       24.77400
