115
1 1
H          2.43200       -6.13400       23.46900
C          1.94100       -7.09400       23.62400
H          2.51900       -7.69400       24.32500
H          1.86700       -7.62000       22.67400
C          0.55500       -6.86800       24.17800
O         -0.42000       -7.27900       23.55800
N          0.47900       -6.21000       25.33800
H          1.34700       -5.89000       25.73900
C         -0.76000       -5.94200       26.09100
H         -0.46400       -5.49900       27.04200
C         -1.60400       -4.88100       25.34900
H         -0.92200       -4.16800       24.88400
H         -2.17200       -5.35800       24.55300
C         -2.56700       -4.05700       26.21900
H         -2.01200       -3.61100       27.04400
H         -2.92800       -3.23600       25.59900
S         -4.03800       -4.89900       26.87100
C         -3.51000       -5.17000       28.58400
H         -3.39600       -4.21100       29.08900
H         -4.25600       -5.76500       29.11000
H         -2.55800       -5.69900       28.60200
C         -1.51600       -7.24200       26.43300
O         -2.60000       -7.50900       25.92000
N         -0.90800       -8.10200       27.25400
H         -0.01000       -7.86100       27.63800
C         -1.53400       -9.34800       27.71600
H         -2.05200       -9.80900       26.87400
C         -0.45000      -10.32900       28.17400
H          0.03300       -9.93000       29.06700
H         -0.92300      -11.27600       28.44100
S          0.82800      -10.66600       26.92700
C         -2.60100       -9.08300       28.79500
O         -2.54200       -8.07600       29.50000
N         -3.60500       -9.96100       28.89300
H         -3.53300      -10.81100       28.33800
C         -4.89900       -9.68300       29.54300
H         -4.81400       -8.77100       30.13700
C         -5.98600       -9.46700       28.46700
H         -6.14900      -10.41100       27.94600
H         -6.92000       -9.19000       28.95800
C         -5.63500       -8.39100       27.42300
H         -5.59700       -7.41500       27.90600
H         -4.66100       -8.61500       26.99900
C         -6.65200       -8.36200       26.27100
H         -6.73900       -9.36200       25.84200
H         -7.62600       -8.07100       26.66600
C         -6.25300       -7.38000       25.15800
H         -7.04000       -7.38300       24.39900
H         -6.18700       -6.37100       25.57600
N         -4.96200       -7.74500       24.53100
H         -4.18500       -7.57700       25.16600
H         -4.90200       -8.73400       24.30000
H         -4.76500       -7.20300       23.69200
C         -5.30100      -10.82100       30.48400
O         -5.26400      -11.98500       30.10400
N         -5.74000      -10.50500       31.69100
H         -6.01300      -11.25400       32.30600
H         -5.76600       -9.54400       31.98700
H         -2.13800       -4.46100       20.81300
C         -2.20200       -4.91800       21.79900
H         -2.79500       -4.27900       22.45200
H         -1.20300       -5.04500       22.20900
C         -2.87200       -6.26700       21.68100
O         -3.89600       -6.51000       22.31100
N         -2.30200       -7.13400       20.84800
H         -1.44600       -6.85200       20.39900
C         -2.91500       -8.39600       20.39600
H         -3.97200       -8.19300       20.21700
C         -2.31000       -8.84100       19.03900
H         -2.97900       -9.61300       18.65200
C         -2.33800       -7.70700       17.99800
H         -2.04900       -8.10000       17.02200
H         -3.34900       -7.30500       17.91800
H         -1.65500       -6.90100       18.26300
C         -0.91300       -9.50600       19.11700
H         -0.62100       -9.79900       18.10700
H         -0.98700      -10.42600       19.69700
C          0.22500       -8.66000       19.70800
H          1.16000       -9.21500       19.62700
H          0.33000       -7.72300       19.16100
H          0.04000       -8.45400       20.76100
C         -2.87800       -9.55700       21.40500
O         -3.51800      -10.57600       21.16400
N         -2.12500       -9.46000       22.50500
H         -1.63600       -8.59200       22.69600
C         -1.87000      -10.61200       23.37700
H         -1.52400      -11.42800       22.74000
C         -0.72500      -10.27300       24.33600
H          0.13400       -9.93500       23.75500
H         -1.05200       -9.44100       24.95100
S         -0.17300      -11.61500       25.42400
C         -3.12700      -11.11800       24.12000
O         -4.02000      -10.34500       24.48600
N         -3.17000      -12.43200       24.36000
H         -2.38300      -12.98100       24.05200
C         -4.20100      -13.13600       25.13500
H         -5.16500      -12.84500       24.71900
C         -4.02100      -14.66300       24.92400
H         -3.95700      -14.83700       23.84800
C         -2.70900      -15.17500       25.55000
H         -1.85200      -14.62500       25.16200
H         -2.73300      -15.06800       26.63500
H         -2.57100      -16.23000       25.30700
C         -5.17600      -15.54400       25.45000
H         -4.95600      -16.58300       25.19800
H         -5.23900      -15.48200       26.53600
C         -6.54300      -15.20400       24.84300
H         -7.27600      -15.94000       25.17400
H         -6.87300      -14.21700       25.16600
H         -6.48300      -15.23000       23.75400
C         -4.19600      -12.71800       26.62000
O         -3.22800      -12.16100       27.13100
N         -5.28000      -12.96200       27.34300
H         -5.26500      -12.72800       28.33000
H         -6.06800      -13.43600       26.93700
