115
1 1
H         -2.47500       -5.91800       20.19900
C         -2.70900       -6.78000       20.82300
H         -2.49600       -6.54300       21.86500
H         -2.10400       -7.62800       20.50600
C         -4.17100       -7.12100       20.67300
O         -4.89400       -6.43100       19.95800
N         -4.61300       -8.17400       21.36200
H         -3.94700       -8.69400       21.91100
C         -6.00400       -8.64700       21.31000
H         -6.27300       -8.79700       20.26300
C         -6.16300       -9.99700       22.03400
H         -5.83100       -9.89700       23.06900
H         -7.21800      -10.27500       22.03900
C         -5.36900      -11.12900       21.37100
H         -4.30900      -10.87100       21.35800
H         -5.48700      -12.02700       21.97900
S         -5.89700      -11.52100       19.68200
C         -4.80700      -12.92500       19.32900
H         -4.99700      -13.72700       20.04400
H         -5.00300      -13.29100       18.32100
H         -3.76500      -12.61200       19.40100
C         -6.97700       -7.59100       21.85300
O         -7.71900       -6.99800       21.07800
N         -6.92600       -7.28600       23.15300
H         -6.24600       -7.75800       23.72900
C         -7.62300       -6.14400       23.74700
H         -8.41000       -5.80600       23.07400
C         -8.30200       -6.59200       25.04600
H         -8.95800       -7.43400       24.82600
H         -7.53000       -6.94000       25.73400
S         -9.28200       -5.33500       25.91300
C         -6.63400       -4.98800       23.96100
O         -5.59000       -5.18200       24.58100
N         -6.93600       -3.80300       23.41800
H         -7.79500       -3.73300       22.88100
C         -6.09500       -2.59200       23.49200
H         -5.66200       -2.54600       24.49400
C         -4.91600       -2.67100       22.48700
H         -4.52700       -1.67100       22.29600
H         -4.11600       -3.22900       22.97800
C         -5.17500       -3.37500       21.14000
H         -4.23300       -3.42700       20.59400
H         -5.48400       -4.39700       21.35000
C         -6.21900       -2.69500       20.24000
H         -7.13700       -2.52400       20.79400
H         -5.83200       -1.72500       19.92300
C         -6.55900       -3.52500       18.99300
H         -7.26800       -2.95100       18.39000
H         -5.65400       -3.68200       18.39900
N         -7.16800       -4.83100       19.33900
H         -7.83100       -4.73700       20.10500
H         -7.69200       -5.22000       18.55900
H         -6.46700       -5.51200       19.63100
C         -6.92600       -1.31200       23.33600
O         -8.05100       -1.34600       22.85200
N         -6.39100       -0.17300       23.74300
H         -5.46900       -0.16100       24.14700
H         -6.93700        0.66800       23.65100
H        -16.68600       -6.10600       20.79300
C        -15.64000       -6.16200       20.49500
H        -15.55500       -6.02700       19.41800
H        -15.23900       -7.13600       20.77400
C        -14.85600       -5.08400       21.20300
O        -13.90800       -5.38500       21.91600
N        -15.24300       -3.82600       20.98800
H        -16.02900       -3.69200       20.37200
C        -14.65200       -2.61500       21.58900
H        -14.97600       -1.78100       20.96600
C        -15.21400       -2.32300       23.00900
H        -14.85300       -3.08400       23.70400
C        -14.71200       -0.95200       23.50700
H        -13.62500       -0.91400       23.54900
H        -15.06900       -0.15900       22.84800
H        -15.08700       -0.76600       24.51500
C        -16.76400       -2.30700       23.05100
H        -17.16200       -2.01800       22.07700
H        -17.10500       -1.56200       23.77200
C        -17.38100       -3.64300       23.48600
H        -17.14000       -4.43200       22.77700
H        -17.00900       -3.92000       24.47300
H        -18.46500       -3.53800       23.53600
C        -13.11300       -2.60300       21.48300
O        -12.58300       -2.25100       20.43200
N        -12.38700       -3.03300       22.52200
H        -12.88100       -3.42200       23.31100
C        -10.92100       -3.07600       22.54600
H        -10.55100       -2.09500       22.24100
C        -10.46800       -3.32200       23.98900
H         -9.39100       -3.18600       24.03000
H        -10.90500       -2.56100       24.63700
S        -10.85400       -4.95600       24.67100
C        -10.30100       -4.10800       21.57900
O         -9.08800       -4.08500       21.34700
N        -11.10400       -5.00300       20.99100
H        -12.07200       -5.04400       21.29500
C        -10.69100       -5.85800       19.86800
H         -9.73300       -6.30700       20.10400
C        -11.69700       -7.02400       19.68500
H        -12.70300       -6.66200       19.89800
C        -11.71500       -7.59000       18.25300
H        -12.07100       -6.84000       17.54700
H        -10.71400       -7.91500       17.96200
H        -12.39200       -8.44400       18.19700
C        -11.38100       -8.21000       20.62900
H        -12.13400       -8.98400       20.47300
H        -10.41100       -8.63200       20.35800
C        -11.35500       -7.89700       22.13100
H        -10.51500       -7.24600       22.37000
H        -12.28900       -7.42400       22.43200
H        -11.23800       -8.82600       22.68900
C        -10.45600       -5.01800       18.59800
O         -9.49800       -5.26500       17.86900
N        -11.22400       -3.96300       18.35900
H        -11.04400       -3.40900       17.53900
H        -11.93000       -3.67900       19.02600
