130
4 1
H         53.51000       70.38900       59.60200
C         53.66400       70.23300       60.66900
H         54.31000       71.01500       61.06400
H         54.12600       69.26000       60.83000
C         52.33100       70.27600       61.37800
O         52.09600       71.16300       62.19700
N         51.45300       69.32100       61.06500
H         51.74000       68.63400       60.37600
C         50.12700       69.12200       61.67900
H         50.14400       69.48300       62.70700
C         49.03100       69.86700       60.88500
H         49.03700       69.49400       59.85800
H         48.05900       69.61300       61.31200
C         49.13800       71.40200       60.82700
H         50.09300       71.68900       60.38600
H         48.34900       71.76900       60.16900
C         48.97400       72.07600       62.19800
H         48.01200       71.77500       62.61900
H         49.75400       71.73600       62.87900
N         49.00200       73.55000       62.09000
H         48.10900       74.00800       62.00500
C         50.06700       74.33500       62.10600
N         51.28300       73.87700       62.20600
H         51.44200       72.87400       62.26300
H         52.06800       74.49900       62.22000
N         49.92400       75.62800       62.01700
H         49.00900       76.03700       61.93700
H         50.72800       76.22900       62.02600
C         49.80200       67.62600       61.70500
O         50.06200       66.92700       60.73200
N         49.23300       67.13400       62.80200
H         49.01600       67.75900       63.55900
C         48.70800       65.76800       62.87500
H         49.36000       65.10100       62.30700
C         48.71000       65.29700       64.33500
H         48.15100       66.00400       64.95000
H         48.17900       64.34500       64.37800
S         50.34500       65.02100       65.08600
C         47.29700       65.70500       62.25400
O         46.50800       66.62900       62.44100
N         46.95800       64.61700       61.54200
H         47.66100       63.90100       61.42700
C         45.68300       64.44600       60.80600
H         45.45700       65.40600       60.33500
C         45.87400       63.40700       59.67800
H         46.84600       63.55300       59.20300
H         45.86800       62.40800       60.11600
C         44.79100       63.53400       58.58300
H         43.85900       63.90900       59.00400
H         45.12600       64.28100       57.86100
C         44.49100       62.22600       57.82900
H         43.77800       62.44700       57.03300
H         45.41000       61.87800       57.35300
C         43.92400       61.08300       58.69500
H         43.69700       60.23900       58.03600
H         44.69800       60.75300       59.39400
N         42.70400       61.47300       59.45000
H         42.31400       60.68000       59.94200
H         42.93500       62.17700       60.15200
H         41.99600       61.85100       58.83400
C         44.46500       64.12700       61.70600
O         43.70900       63.19300       61.43500
N         44.26900       64.85700       62.78900
H         44.87600       65.64500       62.97100
H         43.47800       64.65500       63.38000
H         56.29300       69.47900       69.56600
C         55.69800       69.55900       68.65600
H         56.06200       70.40000       68.06700
H         54.65400       69.72300       68.91600
C         55.83600       68.29000       67.85000
O         56.29500       68.32400       66.71400
N         55.40400       67.15800       68.41800
H         55.03400       67.23000       69.35500
C         55.60400       65.80600       67.84700
H         56.68100       65.66400       67.72800
C         55.09600       64.75600       68.86000
H         55.42900       65.05400       69.85600
H         54.00400       64.74400       68.85700
C         55.62700       63.33400       68.59500
H         55.18900       62.94300       67.67500
H         56.71100       63.37400       68.47900
C         55.28800       62.38200       69.75400
H         55.69500       62.80200       70.67700
H         54.20200       62.31200       69.84900
N         55.85300       61.03200       69.54000
H         56.23000       60.84000       68.62600
C         55.92200       60.05000       70.42600
N         56.46500       58.90900       70.10800
H         56.51900       58.16900       70.78500
H         56.84500       58.75800       69.18900
N         55.45900       60.17100       71.64000
H         55.53000       59.41100       72.29400
H         55.03100       61.03300       71.92100
C         55.01900       65.60700       66.43500
O         55.44500       64.69900       65.73300
N         54.11000       66.47600       65.98300
H         53.80400       67.19800       66.61300
C         53.59800       66.49200       64.60600
H         53.34600       65.46700       64.32800
C         52.30700       67.32300       64.54700
H         52.56000       68.36900       64.72600
H         51.90400       67.24900       63.53700
S         51.00800       66.84500       65.72400
C         54.60700       67.00300       63.54800
O         54.29800       66.95900       62.35800
N         55.79600       67.49800       63.93200
H         55.97700       67.57000       64.93000
C         56.86800       67.96200       63.02000
H         56.38100       68.46600       62.18400
C         57.73300       69.01200       63.76200
H         57.08500       69.54300       64.46000
H         58.49200       68.51300       64.36500
C         58.37000       70.11300       62.88200
H         57.58000       70.56700       62.28200
H         58.75500       70.88900       63.54600
C         59.51100       69.69500       61.94000
H         59.13800       68.94500       61.24200
H         59.80800       70.56300       61.34800
C         60.74400       69.18600       62.70700
H         61.47500       69.99700       62.78300
H         60.44000       68.91700       63.72200
N         61.34400       67.99600       62.05400
H         60.64300       67.25300       62.04000
H         61.62300       68.19900       61.10400
H         62.14700       67.66300       62.57100
C         57.65400       66.78100       62.40500
O         58.88200       66.73800       62.42800
N         56.96400       65.79300       61.86200
H         55.95500       65.85000       61.83500
H         57.45600       65.00300       61.47800
