104
0 1
H         58.50200       38.22200       66.70300
C         59.02400       38.04000       67.64000
H         58.31100       38.01500       68.46200
H         59.75800       38.82500       67.81100
C         59.73400       36.70900       67.56300
O         59.48400       35.82600       68.37500
N         60.63000       36.56900       66.59000
H         60.80200       37.36300       65.98300
C         61.46200       35.37800       66.41500
H         60.81700       34.50200       66.31700
C         62.25000       35.56000       65.10900
H         61.55900       35.61200       64.26900
H         62.80300       36.49600       65.14900
C         63.21500       34.42100       64.85000
O         62.86500       33.25800       64.90800
N         64.46200       34.71600       64.57800
H         65.07900       33.94400       64.41200
H         64.78800       35.66800       64.69900
C         62.37900       35.16900       67.63800
O         63.17700       36.04700       67.96800
N         62.27000       34.03100       68.32600
H         61.65500       33.30300       67.99100
C         62.91100       33.83300       69.62800
H         63.81900       34.43600       69.65400
C         61.97600       34.34400       70.73100
H         61.33700       35.13300       70.33000
H         61.32500       33.52800       71.04800
S         62.82900       35.02100       72.18000
C         63.34500       32.38000       69.86800
O         62.83900       31.45100       69.24000
N         64.32800       32.19800       70.74900
H         64.65800       32.99900       71.27000
C         65.17300       31.00300       70.81600
H         64.54800       30.11200       70.73400
C         66.17400       31.02000       69.63700
H         67.07300       30.46200       69.90300
H         65.71100       30.49300       68.80200
C         66.56800       32.41200       69.15900
C         67.44100       33.20900       69.92500
H         67.89600       32.80700       70.82100
C         67.68600       34.54600       69.55600
H         68.34000       35.16000       70.15800
C         67.05300       35.09100       68.41800
O         67.23500       36.39800       68.09300
H         67.65800       36.84600       68.84100
C         66.18700       34.29100       67.65100
H         65.68500       34.72200       66.80500
C         65.95000       32.95300       68.01300
H         65.25300       32.35700       67.43700
C         65.91600       30.94100       72.16000
O         66.19200       31.96100       72.78200
N         66.27600       29.75000       72.61900
H         66.76500       29.71100       73.49800
H         66.05200       28.91600       72.10300
H         62.02700       41.97700       64.60500
C         61.33500       41.39100       65.20700
H         60.43400       41.18600       64.63000
H         61.07200       41.94100       66.11000
C         61.98400       40.08200       65.58800
O         61.47600       39.02000       65.24700
N         63.10200       40.15700       66.30700
H         63.43400       41.06600       66.59400
C         63.85600       38.98800       66.78800
H         63.15100       38.17000       66.90600
C         64.90200       38.54800       65.74100
H         64.42800       38.59300       64.76000
C         66.16500       39.40900       65.69700
H         65.89300       40.45500       65.55500
H         66.73300       39.30500       66.62200
H         66.78700       39.09100       64.86000
O         65.32600       37.21600       65.93200
H         65.93100       37.16900       66.68800
C         64.47500       39.26700       68.16000
O         64.81300       40.41200       68.46200
N         64.64600       38.23600       68.98800
H         64.27800       37.33600       68.69100
C         65.25800       38.30200       70.32100
H         64.80800       39.13300       70.86800
C         64.91000       37.00700       71.07300
H         65.11100       36.15100       70.42700
H         65.54900       36.92000       71.95300
S         63.18600       36.95400       71.63300
C         66.77600       38.58000       70.25400
O         67.60200       37.69400       70.48100
N         67.15800       39.80000       69.87300
H         66.42400       40.45400       69.62100
C         68.54900       40.24100       69.71200
H         69.10900       39.42300       69.25800
C         68.58600       41.42800       68.72900
H         68.02100       41.16900       67.83400
H         68.10400       42.29200       69.18800
C         70.01200       41.81700       68.31300
H         69.95300       42.68500       67.65500
H         70.56800       42.12200       69.19900
S         70.96600       40.52300       67.46400
C         70.08000       40.41400       65.88600
H         69.06000       40.07200       66.05600
H         70.06300       41.39300       65.40600
H         70.59000       39.70400       65.23600
C         69.21700       40.54100       71.06900
O         69.44500       41.68500       71.44300
N         69.49500       39.51200       71.85700
H         69.24200       38.57900       71.56500
H         69.91800       39.69300       72.75200
