104
0 1
H         68.95600       35.69900       72.04500
C         68.44600       34.74000       72.08400
H         68.89800       34.11300       72.85100
H         68.51700       34.24700       71.11700
C         66.99100       34.96200       72.41700
O         66.49900       34.37800       73.37600
N         66.30200       35.78600       71.62500
H         66.80300       36.21100       70.85100
C         64.87200       36.10100       71.79600
H         64.49700       35.51400       72.63400
C         64.69700       37.57700       72.20600
H         63.70600       37.69900       72.64300
H         65.42800       37.83500       72.97100
C         64.82200       38.56300       71.05900
O         65.85300       39.17800       70.85000
N         63.78600       38.73700       70.27700
H         63.85100       39.42300       69.53200
H         62.98400       38.12800       70.37000
C         63.97900       35.68400       70.60600
O         62.79600       36.02000       70.58600
N         64.53600       34.97500       69.62200
H         65.50600       34.71000       69.71800
C         63.82500       34.42100       68.46700
H         62.75600       34.38200       68.68400
C         64.04200       35.30900       67.23500
H         65.11400       35.37100       67.04400
H         63.57700       34.83200       66.37100
S         63.38100       36.99100       67.36500
C         64.31500       32.99200       68.20700
O         65.50500       32.71000       68.35900
N         63.40900       32.09100       67.81600
H         62.46500       32.39500       67.63100
C         63.64600       30.64300       67.82700
H         64.72100       30.46000       67.80400
C         63.08700       30.03700       69.13000
H         62.00800       29.92000       69.01900
H         63.50700       29.03900       69.26200
C         63.35400       30.84600       70.39200
C         64.66700       30.98000       70.88800
H         65.48800       30.49300       70.38200
C         64.91800       31.78100       72.01900
H         65.92400       31.89300       72.39600
C         63.85200       32.44200       72.66600
O         64.08500       33.23000       73.74700
H         65.00900       33.53000       73.77700
C         62.53900       32.30500       72.17300
H         61.73400       32.82300       72.67100
C         62.29100       31.51000       71.03700
H         61.28200       31.42000       70.66000
C         63.03100       29.95600       66.59900
O         62.07300       30.44800       66.01200
N         63.54800       28.80100       66.20400
H         64.32900       28.39700       66.69200
H         63.13700       28.34900       65.40300
H         63.64400       40.98300       62.75200
C         64.28200       41.86500       62.77400
H         63.71500       42.74200       62.46800
H         65.12600       41.72200       62.09900
C         64.80400       42.06900       64.17500
O         66.00800       42.04200       64.39900
N         63.90000       42.26200       65.13200
H         62.92200       42.25400       64.87900
C         64.20600       42.45500       66.56200
H         65.06300       43.12200       66.64600
C         63.01900       43.12700       67.27600
H         63.24200       43.20900       68.34100
C         62.72800       44.52800       66.73900
H         61.92100       44.97400       67.32100
H         63.61700       45.15100       66.83200
H         62.42400       44.48100       65.69300
O         61.85500       42.35300       67.10500
H         62.00700       41.52900       67.58700
C         64.59700       41.13500       67.24600
O         63.90800       40.66300       68.15200
N         65.68400       40.51200       66.78400
H         66.17900       40.95100       66.01300
C         66.09800       39.16400       67.17000
H         65.52500       38.83300       68.03600
C         65.79300       38.20100       66.01400
H         66.26500       38.58500       65.10800
H         66.25500       37.23900       66.23700
S         64.03700       37.91300       65.67300
C         67.58100       39.09400       67.56000
O         68.45600       38.93600       66.71000
N         67.86300       39.12400       68.86300
H         67.09800       39.27300       69.51600
C         69.11200       38.59700       69.41000
H         69.94900       39.04600       68.87300
C         69.21500       38.98100       70.89500
H         69.17200       40.06700       70.98300
H         68.36600       38.55700       71.43000
C         70.50900       38.48700       71.55400
H         70.53600       37.39800       71.53400
H         71.35200       38.85800       70.97000
S         70.74400       39.03100       73.26900
C         69.39800       38.15400       74.11200
H         69.50400       37.08000       73.96200
H         69.44200       38.37000       75.18000
H         68.43400       38.48600       73.72500
C         69.15200       37.07300       69.21000
O         68.16800       36.37900       69.45700
N         70.28300       36.52300       68.79100
H         71.07200       37.10300       68.55800
H         70.30300       35.52700       68.64100
