107
0 1
H         10.39300       38.76900       69.91300
C          9.52400       38.22400       70.28200
H          9.09100       38.75900       71.12500
H          9.82100       37.22400       70.59000
C          8.49900       38.12700       69.17800
O          8.72500       38.62300       68.08000
N          7.37500       37.47600       69.46100
H          7.25800       37.09100       70.38700
C          6.21200       37.38500       68.56100
H          6.55300       37.25300       67.53500
C          5.33700       36.17800       68.93200
H          4.41800       36.21400       68.34500
C          6.03400       34.84600       68.66000
H          6.30400       34.78100       67.60600
H          6.93200       34.75700       69.27100
H          5.35500       34.02900       68.90400
O          5.00900       36.22100       70.30300
H          4.64400       37.10200       70.47200
C          5.36100       38.65500       68.63900
O          4.80600       38.95300       69.69800
N          5.21100       39.37100       67.52400
H          5.69200       39.07100       66.68400
C          4.49100       40.64400       67.44400
H          3.82000       40.74600       68.29900
C          5.50400       41.79700       67.47600
H          6.15300       41.70200       66.60600
H          4.95700       42.73100       67.36500
S          6.55700       41.94400       68.94300
C          3.64800       40.75600       66.16300
O          3.83000       40.00700       65.20300
N          2.77200       41.76200       66.11500
H          2.66700       42.34600       66.93600
C          2.32600       42.36700       64.85600
H          2.00000       41.58100       64.17400
C          1.14800       43.30700       65.15900
H          0.74700       43.68500       64.21900
H          0.35800       42.74200       65.65500
C          1.52300       44.48000       66.03700
N          2.00900       44.39300       67.34500
C          2.24300       45.65600       67.73200
H          2.63200       45.93900       68.70200
N          1.92900       46.51600       66.74900
H          2.03800       47.52900       66.79600
C          1.47100       45.79300       65.67300
H          1.14800       46.18300       64.72000
C          3.48600       43.13800       64.19900
O          4.42500       43.54900       64.87300
N          3.43900       43.37800       62.89500
H          4.19800       43.89900       62.47400
H          2.68200       43.02300       62.33600
H          6.15900       48.38800       61.69700
C          6.44900       47.55200       61.06300
H          7.47100       47.68800       60.71400
H          5.77600       47.48600       60.21000
C          6.36000       46.27600       61.86500
O          5.56100       45.40000       61.53700
N          7.16300       46.18600       62.92400
H          7.74500       46.97400       63.16400
C          7.16500       45.05200       63.84700
H          6.20700       44.55200       63.74900
C          8.24700       44.04700       63.42700
H          8.21600       43.92800       62.34300
H          9.22800       44.44900       63.68400
C          8.07900       42.66900       64.03700
C          8.95200       42.22000       65.04600
H          9.74300       42.86300       65.40500
C          8.78700       40.93500       65.60100
H          9.44400       40.59600       66.38800
C          7.74900       40.09600       65.14300
O          7.56100       38.87600       65.70700
H          8.12600       38.77600       66.49600
C          6.87800       40.54500       64.13100
H          6.07800       39.90100       63.79600
C          7.04400       41.83000       63.57900
H          6.37200       42.17400       62.80500
C          7.30600       45.50700       65.30900
O          8.09000       46.40800       65.60800
N          6.53000       44.90300       66.21400
H          5.88900       44.20300       65.85500
C          6.42200       45.23400       67.64600
H          5.59000       44.64800       68.03100
C          7.66900       44.77400       68.42000
H          8.51300       45.38400       68.09600
H          7.50900       44.97400       69.48000
S          8.14100       43.03000       68.25500
C          6.03200       46.69400       67.97200
O          6.18100       47.13700       69.11100
N          5.49600       47.44900       67.00800
H          5.38900       47.03800       66.08700
C          5.06700       48.84500       67.15900
H          5.82500       49.37600       67.73600
C          5.00600       49.50000       65.76600
H          4.63100       50.51900       65.86800
H          6.02100       49.56100       65.37300
C          4.16700       48.76100       64.75000
N          4.48900       47.52200       64.19500
C          3.51400       47.24200       63.31900
H          3.47900       46.34800       62.70900
N          2.60600       48.23300       63.29700
H          1.79300       48.26900       62.69800
C          3.00000       49.19900       64.19700
H          2.49800       50.12800       64.42900
C          3.75000       48.96500       67.94600
O          2.68100       49.22000       67.40000
N          3.78900       48.72900       69.24900
H          4.66000       48.42800       69.66800
H          2.94200       48.80700       69.78600
