107
0 1
H          3.60800       39.48200       67.93900
C          2.83600       38.73700       67.75000
H          1.85600       39.16100       67.96000
H          2.99800       37.87300       68.38900
C          2.89600       38.31000       66.30300
O          3.69500       38.83800       65.53600
N          2.02500       37.38200       65.90900
H          1.36500       37.03700       66.60000
C          1.82100       37.02300       64.49000
H          2.78800       37.08400       63.99000
C          1.34600       35.57000       64.33700
H          1.97600       34.92800       64.95400
C         -0.11800       35.33000       64.70700
H         -0.32900       34.26100       64.65700
H         -0.30700       35.67800       65.71900
H         -0.78200       35.85200       64.01800
O          1.49100       35.17300       62.99700
H          1.08700       35.85900       62.44800
C          0.89000       37.99300       63.74700
O          0.71100       37.87200       62.53700
N          0.28800       38.94800       64.45800
H          0.45900       38.96800       65.45300
C         -0.62400       39.96100       63.93000
H         -0.36000       40.14400       62.88700
C         -2.07100       39.43200       63.93300
H         -2.76900       40.26900       63.96600
H         -2.22600       38.91900       62.98300
S         -2.50200       38.24000       65.23400
C         -0.42700       41.29700       64.66800
O         -0.14200       41.32900       65.86500
N         -0.50800       42.40300       63.92500
H         -0.83000       42.32700       62.97100
C          0.02700       43.71200       64.32100
H          0.26000       43.72200       65.38900
C          1.32800       43.99400       63.53600
H          1.11900       43.94600       62.46600
H          1.64700       45.01300       63.75900
C          2.49000       43.07200       63.83700
N          3.65700       43.44700       64.50700
C          4.38600       42.32900       64.64400
H          5.33300       42.26700       65.16600
N          3.74600       41.28400       64.09800
H          4.01700       40.30900       64.22100
C          2.56700       41.73800       63.55300
H          1.82900       41.14400       63.03800
C         -1.01000       44.80600       64.05100
O         -1.56100       44.88500       62.95900
N         -1.28500       45.66300       65.02100
H         -1.96700       46.38200       64.84500
H         -0.90000       45.51800       65.94600
H         -5.58700       34.73900       68.83500
C         -5.46700       35.80400       68.64500
H         -6.26400       36.35500       69.14300
H         -5.50400       36.00100       67.57500
C         -4.13800       36.26600       69.19200
O         -4.09300       37.14800       70.04000
N         -3.04900       35.68000       68.69600
H         -3.18200       34.97400       67.99000
C         -1.66600       36.02600       69.06000
H         -1.63700       36.18800       70.13800
C         -0.76400       34.81500       68.74700
H         -1.10000       33.97300       69.35400
H         -0.91600       34.53900       67.70300
C          0.72800       34.99100       68.99100
C          1.20100       35.57600       70.18300
H          0.50800       35.90200       70.94700
C          2.58500       35.73900       70.38900
H          2.95700       36.19000       71.29700
C          3.50200       35.31300       69.40600
O          4.83300       35.48700       69.60700
H          5.35900       35.12600       68.89300
C          3.03200       34.72100       68.21500
H          3.73000       34.39100       67.46100
C          1.64800       34.55600       68.01400
H          1.29100       34.08800       67.10800
C         -1.21300       37.35300       68.40800
O         -0.27500       37.39400       67.60900
N         -1.92400       38.44000       68.71400
H         -2.67800       38.33300       69.38500
C         -1.71100       39.77000       68.14300
H         -0.94400       39.69600       67.37800
C         -3.00100       40.27700       67.47800
H         -3.68900       40.58800       68.26600
H         -2.75300       41.16300       66.89400
S         -3.90800       39.13600       66.39700
C         -1.22700       40.78800       69.18900
O         -1.35400       40.56800       70.39200
N         -0.73800       41.94500       68.73300
H         -0.63400       42.06800       67.73000
C         -0.42900       43.09600       69.59400
H         -1.07800       43.05200       70.47000
C          1.02400       43.00200       70.09000
H          1.10600       43.55600       71.02500
H          1.28700       41.96400       70.30000
C          2.01700       43.58600       69.12300
N          2.57600       44.86000       69.23800
C          3.25600       45.06400       68.10100
H          3.79800       45.96900       67.86200
N          3.13200       44.00200       67.28900
H          3.48500       43.94300       66.33600
C          2.35000       43.05900       67.91200
H          1.99900       42.12500       67.49500
C         -0.71600       44.43300       68.88600
O         -0.94700       44.48600       67.68000
N         -0.71700       45.53600       69.62200
H         -0.46700       45.49200       70.59500
H         -0.87100       46.41700       69.16200
