107
0 1
H          6.27300       37.34200       65.75400
C          6.67800       36.86500       66.64500
H          7.33000       37.56100       67.17000
H          7.24100       35.97900       66.35600
C          5.54100       36.46000       67.55100
O          4.38400       36.71100       67.23100
N          5.87300       35.84300       68.68500
H          6.85400       35.70300       68.88100
C          4.93600       35.30700       69.69300
H          4.15600       34.76300       69.17200
C          5.64600       34.29500       70.60900
H          4.94000       33.93200       71.35700
C          6.19300       33.09100       69.84200
H          6.61600       32.37900       70.55100
H          5.38500       32.60600       69.29600
H          6.97000       33.40000       69.14400
O          6.72900       34.92200       71.25500
H          6.33400       35.54100       71.88400
C          4.24500       36.41200       70.51200
O          4.39200       36.49600       71.72800
N          3.52700       37.30700       69.83500
H          3.48100       37.19300       68.82800
C          2.93000       38.52100       70.40200
H          3.64900       38.96600       71.09100
C          2.70800       39.50100       69.24200
H          2.45300       40.47900       69.65200
H          3.63300       39.60000       68.67400
S          1.37900       38.99700       68.12100
C          1.62300       38.29600       71.19900
O          1.05500       39.25600       71.71500
N          1.12300       37.05800       71.28700
H          1.67000       36.29800       70.91300
C         -0.13800       36.70600       71.95500
H         -0.27800       37.38100       72.80100
C         -1.32000       36.91800       70.98600
H         -2.25200       36.82000       71.54300
H         -1.28400       37.93700       70.59800
C         -1.37600       35.95700       69.82200
N         -1.71300       34.60700       69.91600
C         -1.63200       34.11800       68.66900
H         -1.80700       33.08500       68.39900
N         -1.27300       35.08400       67.80700
H         -1.10800       34.94400       66.80900
C         -1.11300       36.25400       68.51600
H         -0.83700       37.22100       68.11900
C         -0.10300       35.27500       72.52600
O          0.82100       34.50300       72.27500
N         -1.09500       34.89700       73.32000
H         -1.86600       35.51700       73.49700
H         -1.08500       33.95500       73.67300
H         -1.70000       32.47000       63.68400
C         -0.63500       32.47200       63.46000
H         -0.48200       32.72400       62.41100
H         -0.21400       31.49100       63.66900
C          0.05100       33.50200       64.32500
O         -0.59400       34.12400       65.16500
N          1.35200       33.68900       64.10500
H          1.78400       33.18700       63.34400
C          2.19300       34.63100       64.84700
H          1.54800       35.19600       65.50800
C          3.21000       33.87000       65.71400
H          3.59200       33.01900       65.14800
H          4.06100       34.52200       65.90300
C          2.70500       33.40300       67.06800
C          2.01600       34.29700       67.91300
H          1.80000       35.30600       67.59500
C          1.61900       33.89300       69.19700
H          1.07200       34.57200       69.82700
C          1.91400       32.59600       69.65800
O          1.56700       32.22900       70.91800
H          1.23700       32.98700       71.42900
C          2.60000       31.69700       68.81600
H          2.82400       30.70500       69.17900
C          2.99400       32.10000       67.52300
H          3.53300       31.41100       66.88800
C          2.91300       35.61900       63.90900
O          3.59100       35.20200       62.97800
N          2.83000       36.93800       64.11800
H          3.37800       37.50400       63.49000
C          1.99100       37.62400       65.11500
H          2.13500       37.13600       66.07800
C          2.50900       39.06300       65.28200
H          3.54100       39.00800       65.63200
H          2.50800       39.55400       64.30900
S          1.59200       40.12600       66.43500
C          0.47500       37.53700       64.80500
O         -0.35200       37.73200       65.69000
N          0.09300       37.15500       63.58100
H          0.79900       36.94000       62.89000
C         -1.28900       36.79400       63.23800
H         -1.73900       36.30500       64.10500
C         -2.10200       38.06500       62.93600
H         -1.68800       38.90900       63.49000
H         -2.04100       38.30300       61.87300
C         -3.54700       37.92700       63.34200
N         -4.55000       37.30300       62.59800
C         -5.65000       37.33500       63.36500
H         -6.61200       36.93300       63.07400
N         -5.38300       37.92200       64.54500
H         -6.04200       38.04800       65.30000
C         -4.05700       38.29300       64.55200
H         -3.50500       38.75300       65.36100
C         -1.32400       35.77200       62.09000
O         -0.28500       35.37500       61.57100
N         -2.49600       35.30800       61.68600
H         -2.51900       34.64800       60.92800
H         -3.34600       35.69600       62.07600
