107
0 1
H          9.53000       35.51100       67.30400
C          9.21400       36.54700       67.20200
H          9.85600       37.05300       66.48200
H          9.27800       37.05500       68.16300
C          7.79000       36.59200       66.70300
O          7.52300       37.16500       65.65600
N          6.86600       36.01400       67.47000
H          7.18400       35.58800       68.32600
C          5.42100       35.91600       67.15900
H          5.34100       35.62900       66.11000
C          4.78600       34.76600       67.96800
H          5.33600       33.85100       67.74600
C          4.80500       34.97200       69.48500
H          4.26600       35.87900       69.75900
H          4.32500       34.11900       69.96600
H          5.83100       35.04000       69.84300
O          3.45100       34.56700       67.58400
H          3.00700       35.42300       67.69600
C          4.64700       37.25100       67.27400
O          3.49600       37.29000       67.70800
N          5.28900       38.36300       66.92100
H          6.20600       38.25300       66.50600
C          4.70700       39.70200       66.92100
H          4.19200       39.87300       67.86700
C          5.84300       40.72000       66.77700
H          6.27100       40.60200       65.78300
H          5.41300       41.71900       66.82100
S          7.20000       40.62700       67.97000
C          3.71300       39.92300       65.76600
O          3.66700       39.16700       64.79300
N          3.00300       41.05200       65.82100
H          3.08300       41.62700       66.65100
C          2.49500       41.74400       64.63500
H          1.96900       41.02800       64.00100
C          1.51700       42.83600       65.09400
H          1.05800       43.29200       64.21700
H          0.72300       42.37900       65.68600
C          2.17100       43.91900       65.92300
N          2.78700       43.73000       67.16400
C          3.24300       44.93700       67.53100
H          3.77000       45.13900       68.45500
N          2.95000       45.85700       66.59700
H          3.19300       46.84600       66.65100
C          2.27500       45.23300       65.57400
H          1.90400       45.68900       64.66900
C          3.65000       42.36100       63.82200
O          4.71900       42.65500       64.34900
N          3.44200       42.61100       62.53700
H          4.21800       42.96500       61.99600
H          2.57800       42.34600       62.09700
H          6.72600       47.29300       59.65600
C          7.38000       47.11400       60.50800
H          7.25300       47.90800       61.24200
H          8.41500       47.07500       60.17600
C          7.00900       45.79600       61.14500
O          6.05900       45.15000       60.71100
N          7.75000       45.41200       62.18200
H          8.48100       46.02300       62.51200
C          7.47800       44.22000       62.98800
H          6.40500       44.02900       62.94900
C          8.20700       43.00100       62.39000
H          8.56100       43.23600       61.38400
H          9.08700       42.76500       62.99000
C          7.31200       41.78500       62.28700
C          7.33900       40.79000       63.28200
H          8.04700       40.85500       64.09700
C          6.42100       39.72400       63.23300
H          6.42000       38.96500       64.00100
C          5.48200       39.65000       62.18300
O          4.51400       38.70100       62.20400
H          4.22000       38.55800       63.11700
C          5.49700       40.61300       61.15300
H          4.78100       40.53800       60.35000
C          6.40600       41.68600       61.21200
H          6.39200       42.45200       60.44800
C          7.84700       44.45600       64.46100
O          8.78600       45.19500       64.75500
N          7.10100       43.84700       65.38900
H          6.32800       43.27900       65.05200
C          7.22300       44.02200       66.84800
H          6.38300       43.49400       67.29200
C          8.49800       43.34400       67.37700
H          9.35900       43.88300       66.98000
H          8.52200       43.44700       68.46200
S          8.70700       41.58400       66.98200
C          7.06500       45.47200       67.36300
O          7.36900       45.75900       68.52100
N          6.55300       46.38900       66.53900
H          6.32000       46.09500       65.59600
C          6.32200       47.80400       66.85000
H          7.19600       48.19000       67.37600
C          6.19100       48.58200       65.52600
H          5.91900       49.61500       65.74200
H          7.16800       48.59500       65.04200
C          5.20400       48.00000       64.53900
N          5.37900       46.80000       63.84900
C          4.31500       46.67100       63.04500
H          4.16500       45.84900       62.35600
N          3.48400       47.71700       63.20100
H          2.63200       47.86800       62.68100
C          4.02800       48.56500       64.14300
H          3.62200       49.50100       64.50000
C          5.11700       48.00100       67.78600
O          4.03300       48.40600       67.37700
N          5.26600       47.66600       69.05900
H          6.13400       47.24000       69.35700
H          4.49300       47.79100       69.69000
