107
0 1
H          6.22400       31.15900       61.24400
C          5.83800       32.08600       60.82500
H          4.98800       31.87400       60.17900
H          6.62100       32.58300       60.25600
C          5.40000       32.99100       61.95200
O          5.51300       32.62200       63.11400
N          4.86600       34.15800       61.60500
H          4.77600       34.36800       60.62200
C          4.51200       35.23400       62.54600
H          4.44200       34.83400       63.55600
C          5.60200       36.31900       62.52900
H          5.65400       36.73900       61.52300
C          5.35100       37.47000       63.50000
H          4.48400       38.04100       63.17900
H          5.17800       37.08800       64.50400
H          6.21400       38.13600       63.50700
O          6.86800       35.77300       62.82500
H          6.81700       35.27300       63.65600
C          3.16100       35.83900       62.16400
O          2.92800       36.11500       60.98800
N          2.27100       36.07300       63.13400
H          2.53000       35.85200       64.09100
C          0.89700       36.54600       62.88000
H          0.39300       35.82900       62.23000
C          0.14000       36.62200       64.21100
H          0.53800       37.46700       64.77200
H         -0.91200       36.82900       64.00900
S          0.25100       35.14500       65.25500
C          0.84500       37.92600       62.19800
O         -0.09100       38.22600       61.46500
N          1.85900       38.75900       62.44200
H          2.52300       38.47900       63.15100
C          2.03300       40.10700       61.89300
H          1.10200       40.66000       62.02300
C          3.14500       40.81400       62.69300
H          4.10100       40.34600       62.45600
H          3.20100       41.85300       62.36600
C          2.97500       40.79200       64.19800
N          2.96600       39.64500       65.00400
C          2.84100       40.08800       66.26200
H          2.79200       39.46500       67.14200
N          2.79900       41.42600       66.29400
H          2.77400       41.96800       67.15200
C          2.88000       41.89300       65.00000
H          2.89100       42.92300       64.67500
C          2.35900       40.14000       60.38800
O          2.45500       41.21300       59.80500
N          2.56600       39.00300       59.73200
H          2.76500       39.05000       58.74800
H          2.47800       38.11600       60.20800
H          3.16800       42.59100       71.14100
C          3.85800       41.78500       71.38600
H          3.44600       41.19000       72.20000
H          4.81900       42.20300       71.68000
C          4.04000       40.90600       70.17200
O          3.44900       41.16700       69.13000
N          4.86800       39.87100       70.30700
H          5.27900       39.71000       71.21100
C          5.05000       38.83600       69.28300
H          5.07900       39.32400       68.30700
C          6.39900       38.13000       69.49200
H          7.19500       38.87700       69.49400
H          6.40000       37.64200       70.46800
C          6.70500       37.10300       68.41800
C          7.16300       37.53000       67.15700
H          7.36200       38.57800       66.97500
C          7.34800       36.59500       66.12100
H          7.69900       36.91600       65.15200
C          7.05500       35.23300       66.33400
O          7.15500       34.35500       65.30100
H          6.97800       33.43800       65.56900
C          6.63200       34.80100       67.60900
H          6.44200       33.75400       67.78100
C          6.45800       35.73500       68.64900
H          6.11200       35.40100       69.61800
C          3.88400       37.82900       69.26600
O          3.24000       37.59300       70.28600
N          3.63300       37.20400       68.11300
H          4.23800       37.39100       67.32400
C          2.60500       36.18100       67.91800
H          2.44800       35.63800       68.85100
C          1.29500       36.88600       67.54100
H          1.00700       37.51700       68.38400
H          1.48900       37.54400       66.69500
S         -0.13700       35.84800       67.12900
C          3.08200       35.18900       66.84800
O          3.47900       35.60000       65.75600
N          3.07600       33.89000       67.16200
H          2.65100       33.60400       68.03000
C          3.62400       32.84400       66.29100
H          4.38400       33.29200       65.64600
C          4.31600       31.76900       67.14100
H          4.76900       32.22700       68.01900
H          3.58300       31.03900       67.48800
C          5.40700       31.07500       66.37300
N          6.65200       31.63800       66.09100
C          7.28400       30.75200       65.30700
H          8.27500       30.89500       64.89500
N          6.50700       29.67500       65.09400
H          6.75400       28.88400       64.51700
C          5.31300       29.86400       65.75400
H          4.45100       29.21000       65.75700
C          2.56000       32.22000       65.38000
O          1.44100       31.96200       65.80300
N          2.90100       31.91400       64.13900
H          2.20700       31.49600       63.54200
H          3.84400       32.09200       63.81600
