102
0 1
H         -6.68400       37.15000       35.72700
C         -7.20700       37.67900       34.93100
H         -7.21700       37.06800       34.03000
H         -6.70300       38.62300       34.73100
C         -8.62500       37.95500       35.36900
O         -9.02300       37.58300       36.47200
N         -9.41400       38.59000       34.50700
H         -9.06000       38.87300       33.60400
C        -10.79200       38.93100       34.84700
H        -11.27200       38.04600       35.23700
H        -10.78200       39.69200       35.62800
C        -11.66500       39.43300       33.70800
O        -11.27500       39.40400       32.54200
N        -12.85300       39.89200       34.09000
H        -13.09300       39.76700       35.07200
C        -13.69900       40.80800       33.32000
H        -13.13100       41.16400       32.46000
C        -14.92600       40.04900       32.79900
H        -15.29800       40.57100       31.91700
H        -14.61900       39.05200       32.48800
S        -16.31900       39.89100       33.95100
C        -14.09600       42.05300       34.14400
O        -14.81200       42.92300       33.65600
N        -13.65300       42.12600       35.40300
H        -13.03100       41.39900       35.74000
C        -14.12900       43.04900       36.42900
H        -14.72300       43.82900       35.95100
C        -15.05600       42.28300       37.39700
H        -15.52400       43.02300       38.04700
H        -15.85600       41.80700       36.82800
C        -14.39000       41.22700       38.30500
H        -13.49500       41.64400       38.76800
H        -15.08600       41.01100       39.11900
C        -14.04500       39.90200       37.60400
O        -12.99400       39.80000       36.92700
O        -14.77600       38.90800       37.80000
C        -12.96800       43.74400       37.16400
O        -11.83700       43.27100       37.18800
N        -13.22800       44.88200       37.79600
H        -12.46900       45.33500       38.27800
H        -14.15400       45.27400       37.78300
H        -13.01100       38.80200       30.57400
C        -13.32500       37.86000       30.12900
H        -14.23400       38.01600       29.55000
H        -12.53800       37.48300       29.48000
C        -13.60100       36.85000       31.21600
O        -14.68400       36.28100       31.27200
N        -12.62700       36.62800       32.09700
H        -11.79100       37.19000       32.01900
C        -12.73700       35.67500       33.21100
H        -13.26600       34.79400       32.84200
C        -11.32800       35.21500       33.63700
H        -10.87300       34.68400       32.80000
H        -10.72500       36.10200       33.82400
C        -11.24500       34.31400       34.86500
C        -12.25200       33.36800       35.15500
H        -13.10200       33.24700       34.50000
C        -12.16700       32.57300       36.31200
H        -12.94700       31.85700       36.53100
C        -11.07000       32.70600       37.18100
H        -11.00400       32.08700       38.06500
C        -10.05900       33.63800       36.89300
H         -9.20900       33.73500       37.55400
C        -10.14700       34.43600       35.73900
H         -9.36000       35.14300       35.52200
C        -13.58600       36.23500       34.37100
O        -13.06700       36.56000       35.44000
N        -14.89300       36.37800       34.15800
H        -15.25800       36.16700       33.23600
C        -15.82300       36.82800       35.19300
H        -15.46000       37.77500       35.59300
C        -17.21100       37.06200       34.58400
H        -17.59700       36.10900       34.21800
H        -17.87300       37.39900       35.38300
S        -17.32200       38.27200       33.24000
C        -15.92700       35.82400       36.35500
O        -16.21500       34.64700       36.14200
N        -15.73400       36.30700       37.58700
H        -15.43400       37.28100       37.64400
C        -15.90400       35.55500       38.84900
H        -16.78600       34.92200       38.73900
C        -14.70500       34.60600       39.09000
H        -14.71900       34.25700       40.12300
H        -14.85500       33.72500       38.46300
C        -13.30100       35.14700       38.76600
H        -12.57600       34.37100       39.01500
H        -13.23700       35.31200       37.69300
C        -12.90600       36.42900       39.51500
H        -13.65100       37.20700       39.36600
H        -12.84200       36.21000       40.58100
C        -11.55300       36.95200       39.02200
H        -11.20400       37.73300       39.70300
H        -10.83200       36.13100       39.04100
N        -11.64700       37.50400       37.65200
H        -12.11600       36.86400       37.01400
H        -12.20500       38.36200       37.60600
H        -10.72500       37.70400       37.27200
C        -16.21500       36.43000       40.07800
O        -16.43500       35.91100       41.16200
N        -16.24800       37.74800       39.95700
H        -15.98300       38.19000       39.08500
H        -16.47000       38.29500       40.77100
