102
0 1
H        -14.04100       38.71400       33.17900
C        -14.10900       39.14500       34.17600
H        -15.06800       38.88800       34.62200
H        -14.01100       40.22800       34.11300
C        -12.99200       38.59700       35.03200
O        -12.17200       37.82100       34.55000
N        -12.96300       38.99900       36.29900
H        -13.67000       39.65000       36.61100
C        -11.93900       38.63600       37.28200
H        -12.12100       37.62800       37.65100
H        -10.95400       38.66100       36.82400
C        -11.95600       39.59600       38.47200
O        -13.02700       40.02400       38.89500
N        -10.78500       39.94400       39.00600
H         -9.93500       39.65700       38.52500
C        -10.64400       40.92300       40.09600
H        -11.56200       40.93600       40.68500
C         -9.50300       40.46300       41.01300
H         -9.45900       41.12300       41.88100
H         -9.73300       39.45900       41.36700
S         -7.87100       40.44900       40.22400
C        -10.40800       42.36500       39.60100
O        -10.23000       43.27200       40.40900
N        -10.35900       42.58500       38.28500
H        -10.59700       41.81800       37.67000
C         -9.76200       43.77400       37.65800
H         -8.94500       44.10600       38.30000
C         -9.13400       43.39900       36.29900
H         -9.92100       43.23000       35.56300
H         -8.54200       44.24900       35.95800
C         -8.19700       42.17400       36.35500
H         -7.57200       42.18800       35.46000
H         -7.53700       42.26300       37.22000
C         -8.94200       40.83000       36.39100
O         -9.95900       40.66100       35.68800
O         -8.52300       39.89400       37.10600
C        -10.71800       44.98500       37.56200
O        -10.65500       45.78300       36.63400
N        -11.64000       45.14000       38.50200
H        -12.26500       45.92500       38.43900
H        -11.64600       44.51100       39.29200
H        -10.75400       31.70500       40.59800
C        -10.41000       32.67000       40.96300
H        -11.25500       33.34700       41.07700
H         -9.91500       32.53900       41.92400
C         -9.42400       33.25500       39.98000
O         -8.27900       33.50400       40.32800
N         -9.87800       33.49600       38.75100
H        -10.84700       33.28300       38.56600
C         -9.09400       34.02600       37.62100
H         -8.12400       33.52600       37.63200
C         -9.79000       33.62200       36.30400
H         -9.40200       34.21300       35.47500
H         -9.51600       32.58700       36.09400
C        -11.30900       33.70700       36.32200
C        -11.95700       34.94700       36.18300
H        -11.37800       35.84400       36.02800
C        -13.35900       35.02600       36.24300
H        -13.85200       35.98100       36.12900
C        -14.12200       33.86200       36.44200
H        -15.20100       33.92300       36.48400
C        -13.48000       32.61900       36.57900
H        -14.06700       31.72300       36.72500
C        -12.07700       32.54100       36.51800
H        -11.59200       31.58100       36.62200
C         -8.76200       35.53600       37.73900
O         -8.97500       36.32400       36.81300
N         -8.24300       35.94100       38.90000
H         -8.05400       35.22100       39.58900
C         -7.68700       37.26800       39.15700
H         -8.37700       38.01400       38.76400
C         -7.57600       37.46000       40.67400
H         -8.57400       37.38100       41.10500
H         -6.97400       36.64500       41.08100
S         -6.83600       39.02000       41.23400
C         -6.32600       37.44900       38.46200
O         -5.47000       36.56900       38.52900
N         -6.13100       38.59100       37.79500
H         -6.93000       39.22300       37.73000
C         -4.97200       38.87300       36.92200
H         -4.40900       37.95100       36.76600
C         -5.48800       39.35300       35.55200
H         -6.02900       40.28600       35.70800
H         -4.64400       39.55900       34.89100
C         -6.41000       38.32200       34.87100
H         -5.80700       37.51700       34.44800
H         -7.06800       37.87600       35.61100
C         -7.27400       38.95300       33.76800
H         -7.56100       39.96800       34.04800
H         -6.69000       39.01200       32.84900
C         -8.55600       38.14600       33.51300
H         -9.07700       38.59300       32.66200
H         -8.29200       37.11800       33.25500
N         -9.45300       38.16300       34.69300
H         -9.06700       37.65700       35.48600
H         -9.61500       39.11800       35.02200
H        -10.37600       37.79000       34.48900
C         -3.96900       39.86400       37.53000
O         -2.97300       40.19800       36.90500
N         -4.20700       40.35900       38.73600
H         -5.03100       40.07400       39.23700
H         -3.54500       41.00900       39.12300
