95
-1 1
H         11.08900       53.65800       13.21500
C         10.09600       53.99600       12.92900
H          9.93200       53.82100       11.86700
H         10.00000       55.06000       13.13600
C          9.06200       53.22900       13.72000
O          8.35800       52.39500       13.16200
N          8.98900       53.48100       15.02600
H          9.53900       54.24400       15.39300
C          8.11400       52.75500       15.96100
H          8.15300       51.69900       15.69400
C          8.67400       52.87100       17.39100
H          7.94800       52.46100       18.09400
H          9.56100       52.24000       17.45000
C          9.07600       54.24300       17.84600
C          8.29700       55.09300       18.54900
H          7.28900       54.87100       18.87600
N          8.95100       56.29900       18.71500
H          8.48500       57.14800       19.02900
C         10.21400       56.26700       18.16600
C         11.23100       57.22600       18.05200
H         11.09800       58.21000       18.47600
C         12.40700       56.89600       17.35800
H         13.19300       57.63000       17.24700
C         12.55300       55.61400       16.79500
H         13.45900       55.36700       16.26000
C         11.52300       54.66000       16.91300
H         11.64400       53.68100       16.47300
C         10.32300       54.96400       17.59400
C          6.61500       53.11600       15.86600
O          5.80000       52.44100       16.49000
N          6.23800       54.10100       15.04400
H          6.97200       54.66100       14.61700
C          4.87000       54.29700       14.54200
H          4.23200       53.48100       14.88600
C          4.29200       55.61200       15.08100
H          5.03500       56.39700       14.95600
H          3.42600       55.86500       14.46900
S          3.71400       55.58500       16.79800
C          4.78800       54.29900       13.00200
O          3.76600       53.89900       12.44900
N          5.82400       54.76600       12.30100
H          6.61400       55.15500       12.81100
C          5.86000       54.87300       10.84100
H          4.89000       55.23200       10.49400
C          6.91800       55.92600       10.48600
H          6.93700       56.07800        9.40700
H          6.67900       56.87100       10.97700
H          7.90100       55.59200       10.82000
C          6.13000       53.53800       10.11200
O          5.89500       53.42700        8.91200
N          6.62900       52.51000       10.78700
H          6.79300       51.64800       10.29700
H          6.88500       52.61200       11.76100
H          3.12200       56.64000       12.11900
C          2.73200       57.43300       11.48500
H          2.12800       56.98600       10.69700
H          3.55100       57.99100       11.03800
C          1.85600       58.35700       12.30900
O          0.66800       58.46000       12.04400
N          2.38200       59.05200       13.31600
H          1.72900       59.60200       13.85600
C          3.78800       59.11100       13.74000
H          4.26900       58.15500       13.53600
C          4.53000       60.19200       12.93800
H          4.52000       59.93100       11.88000
H          4.01700       61.14700       13.06500
O          5.87200       60.33900       13.36300
H          6.29600       59.44100       13.36200
C          3.90700       59.38300       15.24500
O          3.06700       60.05300       15.84200
N          4.98300       58.87500       15.84200
H          5.62100       58.34900       15.25100
C          5.42700       59.13100       17.21600
H          5.08600       60.12600       17.50600
C          4.78100       58.11000       18.16200
H          5.07100       58.37500       19.17900
H          3.69600       58.20300       18.09500
S          5.23000       56.37000       17.90400
C          6.97100       59.14500       17.29600
O          7.57000       58.82800       18.32500
N          7.60100       59.44900       16.15900
H          7.00600       59.69900       15.38100
C          8.95200       59.02100       15.78500
H          9.59100       59.02600       16.66800
C          8.89100       57.57700       15.23800
H          9.86800       57.30700       14.83300
H          8.70100       56.91800       16.08000
C          7.80800       57.24600       14.19800
O          7.77600       56.07100       13.78500
O          6.94400       58.09100       13.85800
C          9.62400       59.94100       14.74400
O         10.84500       59.99600       14.65900
N          8.87600       60.70500       13.95500
H          7.86900       60.64900       13.98600
H          9.34300       61.29400       13.28800
