95
-1 1
H          7.31600       55.94900       13.51900
C          7.76100       55.43000       14.36500
H          8.77800       55.12500       14.13000
H          7.17400       54.54500       14.60900
C          7.79500       56.35000       15.56100
O          7.71100       57.56400       15.39300
N          7.93000       55.80000       16.76400
H          8.13400       54.80100       16.79800
C          7.94800       56.57300       18.01200
H          7.09400       57.25000       17.98500
C          7.75100       55.64000       19.21900
H          7.33000       56.24400       20.02400
H          7.00000       54.88900       18.96900
C          8.95800       54.95100       19.78500
C          9.39000       53.71200       19.45800
H          8.91800       53.06900       18.72200
N         10.51300       53.39700       20.19900
H         11.03100       52.52500       20.10800
C         10.85500       54.41600       21.05800
C         11.87900       54.56400       22.00500
H         12.58600       53.76500       22.16500
C         11.97800       55.76800       22.72200
H         12.76800       55.90600       23.44600
C         11.05600       56.80300       22.48100
H         11.14300       57.73600       23.02000
C         10.02800       56.64000       21.53000
H          9.33500       57.44700       21.34100
C          9.89600       55.44000       20.79700
C          9.19300       57.46300       18.14800
O          9.08900       58.55300       18.70900
N         10.33200       57.06300       17.56800
H         10.35300       56.13000       17.15600
C         11.50200       57.93800       17.39700
H         11.46800       58.71800       18.15900
C         12.79200       57.14400       17.62900
H         12.81900       56.30000       16.94000
H         13.63900       57.79500       17.40700
S         12.99900       56.53700       19.32200
C         11.54000       58.67000       16.03900
O         12.47200       59.43300       15.79300
N         10.56700       58.44000       15.14800
H          9.81000       57.82500       15.41600
C         10.47300       59.10200       13.84000
H         11.45000       59.50500       13.57000
C         10.10100       58.04300       12.79500
H         10.11800       58.49300       11.80200
H         10.81800       57.22200       12.82500
H          9.10100       57.66000       12.99200
C          9.48400       60.28700       13.82100
O          9.59400       61.18000       12.98700
N          8.51100       60.33300       14.72300
H          8.37200       59.55100       15.34900
H          7.87600       61.11100       14.70700
H         12.65300       49.34800       24.52900
C         13.29500       48.55800       24.14200
H         12.69900       47.82900       23.59600
H         13.81000       48.06700       24.96700
C         14.32200       49.16000       23.21200
O         15.51500       49.04200       23.45600
N         13.85200       49.80400       22.14700
H         12.85200       49.87300       22.02700
C         14.67900       50.48500       21.14200
H         15.53300       50.95100       21.63400
C         15.20500       49.46600       20.11800
H         15.82200       48.73100       20.63800
H         14.36500       48.94900       19.65100
O         15.98600       50.08600       19.11200
H         15.39900       50.40800       18.39900
C         13.87100       51.57000       20.42800
O         12.64300       51.48700       20.36300
N         14.55900       52.55100       19.84100
H         15.56400       52.52700       19.92200
C         13.99400       53.33300       18.74200
H         13.04800       53.76900       19.06400
C         14.95200       54.46300       18.34400
H         15.96800       54.07000       18.28600
H         14.68300       54.81100       17.34600
S         14.93600       55.91000       19.42700
C         13.70400       52.45100       17.51700
O         14.30900       51.39000       17.34100
N         12.80300       52.93300       16.66700
H         12.30300       53.78000       16.92200
C         12.32300       52.29500       15.43900
H         12.76700       51.30400       15.33700
C         10.79600       52.12600       15.55200
H         10.40200       51.82200       14.58100
H         10.60600       51.30800       16.25000
C         10.01200       53.35600       16.04900
O          8.80200       53.18400       16.30200
O         10.58400       54.46800       16.19900
C         12.69800       53.08800       14.17200
O         13.15200       52.52000       13.18500
N         12.56000       54.40700       14.17800
H         12.81000       54.92400       13.35200
H         12.07300       54.83600       14.95600
