95
-1 1
H          2.10400       48.48700       11.61500
C          1.89200       48.47100       12.68400
H          2.08800       47.47600       13.07500
H          0.85500       48.75300       12.85400
C          2.79400       49.45900       13.38200
O          2.34100       50.21800       14.23500
N          4.07200       49.47100       13.01100
H          4.33600       48.89400       12.21300
C          5.09500       50.35500       13.58800
H          5.10800       50.19900       14.66700
C          6.47400       49.97100       13.03800
H          6.50200       50.18300       11.96900
H          7.22500       50.60400       13.51300
C          6.87300       48.54200       13.25400
C          6.84200       47.57100       12.31500
H          6.52300       47.71800       11.28700
N          7.24700       46.37300       12.86800
H          7.28100       45.51200       12.34400
C          7.55600       46.51000       14.20500
C          7.99600       45.60700       15.18400
H          8.15700       44.57000       14.93500
C          8.22000       46.07300       16.49100
H          8.55800       45.39300       17.26000
C          8.00100       47.42900       16.80000
H          8.17200       47.78400       17.80600
C          7.55900       48.32600       15.80700
H          7.39200       49.36400       16.05300
C          7.32500       47.89200       14.48400
C          4.81500       51.85000       13.36200
O          5.34200       52.68200       14.09900
N          3.93700       52.20000       12.41500
H          3.58300       51.46800       11.80600
C          3.40900       53.55700       12.23400
H          4.23100       54.21900       11.95900
C          2.40300       53.50800       11.07900
H          2.83900       52.94300       10.25800
H          1.51900       52.97600       11.43200
S          1.86200       55.10600       10.42700
C          2.73600       54.12700       13.50300
O          2.69700       55.34100       13.68900
N          2.23000       53.26600       14.39700
H          2.28800       52.27200       14.20100
C          1.67000       53.66300       15.69200
H          1.02300       54.52700       15.53300
C          0.80400       52.50500       16.20500
H          0.30300       52.80300       17.12700
H          0.05200       52.24500       15.46000
H          1.42800       51.63400       16.40500
C          2.72800       54.08600       16.74000
O          2.38000       54.51800       17.83500
N          4.02200       53.96400       16.46200
H          4.69000       54.25300       17.15400
H          4.32100       53.61000       15.56200
H         -3.57000       51.24400        5.18500
C         -2.97900       50.53400        5.76300
H         -2.35400       49.94900        5.09200
H         -3.63900       49.88000        6.32800
C         -2.09600       51.30100        6.71900
O         -2.13000       52.52500        6.74000
N         -1.30900       50.57700        7.51200
H         -1.30600       49.57800        7.39600
C         -0.29900       51.17100        8.39800
H         -0.75000       52.01700        8.91700
C          0.12600       50.14800        9.45300
H         -0.76300       49.69100        9.88900
H          0.74300       49.37100        8.99900
O          0.84100       50.79000       10.47900
H          1.81100       50.62700       10.32900
C          0.90200       51.68000        7.58900
O          1.35100       50.99900        6.66700
N          1.41900       52.87400        7.90000
H          1.04200       53.37300        8.69100
C          2.39600       53.56900        7.04700
H          2.01600       53.51800        6.02600
C          2.45400       55.05700        7.42400
H          3.01300       55.55900        6.63300
H          1.44300       55.46600        7.41300
S          3.24800       55.51500        8.99300
C          3.80400       52.93800        6.99200
O          4.59800       53.30500        6.13000
N          4.10800       51.98000        7.86900
H          3.41900       51.72900        8.56800
C          5.29900       51.12200        7.81600
H          6.15800       51.72500        7.51900
C          5.57900       50.54800        9.21800
H          6.42000       49.85400        9.16200
H          5.88600       51.37300        9.86300
C          4.38000       49.85600        9.88200
O          4.52400       48.69900       10.32400
O          3.32500       50.51300       10.05900
C          5.18500       49.97500        6.78800
O          6.17300       49.32600        6.46100
N          4.00500       49.69800        6.24300
H          3.95300       48.95100        5.57400
H          3.18800       50.23900        6.49500
