68
0 1
H         24.43900      -23.10900      135.68800
C         24.65500      -23.62200      134.75100
H         23.77900      -23.56900      134.11100
H         24.90300      -24.66100      134.95000
C         25.82000      -22.94400      134.07300
O         26.34300      -21.96000      134.58000
N         26.23500      -23.45100      132.91400
H         25.71600      -24.21700      132.50700
C         27.41900      -22.97400      132.17200
H         28.20500      -22.77500      132.90100
C         27.92800      -24.08900      131.25100
H         28.87000      -23.78700      130.79000
H         28.10500      -24.98900      131.84100
O         26.97900      -24.37500      130.24500
H         27.01000      -23.65800      129.60100
C         27.20000      -21.65500      131.40500
O         27.82900      -21.42200      130.37400
N         26.28000      -20.80500      131.86400
H         25.84300      -21.03500      132.75000
C         25.94500      -19.50300      131.28600
H         26.86300      -18.96600      131.04300
C         25.12300      -19.71800      130.00400
H         25.66300      -20.39900      129.34500
H         24.19000      -20.20800      130.28000
S         24.71400      -18.23600      129.03900
C         25.12300      -18.68800      132.29600
O         24.33200      -19.26000      133.04400
N         25.19700      -17.35400      132.25900
H         25.82100      -16.90800      131.60300
C         24.21300      -16.49700      132.95100
H         24.23900      -16.71100      134.02100
C         24.57800      -15.02500      132.73800
H         23.80300      -14.39300      133.17700
H         25.52700      -14.81500      133.23300
O         24.69800      -14.74800      131.35300
H         24.84500      -13.80300      131.23800
C         22.78300      -16.76900      132.45400
O         21.84400      -16.80600      133.24200
N         22.64400      -17.08300      131.16400
H         23.46700      -16.98700      130.58900
C         21.43900      -17.58900      130.50600
H         20.61500      -16.91800      130.75600
C         21.67900      -17.50900      128.99100
H         20.72000      -17.69100      128.50200
H         21.97900      -16.49200      128.73500
S         22.87700      -18.66800      128.25000
C         20.99700      -19.00900      130.93300
O         20.02900      -19.53100      130.38900
N         21.69400      -19.63900      131.88600
H         22.48700      -19.15700      132.28900
C         21.43200      -20.99300      132.39500
H         20.42800      -21.29000      132.08900
C         22.43800      -21.95300      131.73200
H         22.52700      -21.69600      130.67500
H         23.41500      -21.81500      132.19800
C         22.05800      -23.43500      131.79600
H         21.84500      -23.72400      132.82300
H         21.15600      -23.59200      131.20500
S         23.36900      -24.52100      131.17100
C         22.57700      -26.12900      131.43000
H         21.65200      -26.17800      130.85500
H         23.24900      -26.92100      131.10000
H         22.35400      -26.26200      132.48900
C         21.45800      -21.05000      133.94000
O         21.39800      -22.11700      134.53900
N         21.54700      -19.91800      134.62900
H         21.57900      -19.97300      135.63300
H         21.59200      -19.03000      134.15100
