68
0 1
H         24.09000      -18.43500      135.67600
C         24.38800      -17.95000      136.60300
H         24.04000      -18.52900      137.45600
H         23.96400      -16.94800      136.64300
C         25.89400      -17.84700      136.65000
O         26.43700      -16.75100      136.67300
N         26.57200      -18.99200      136.62900
H         26.04600      -19.85200      136.63900
C         28.03700      -19.13100      136.74800
H         28.35000      -18.62800      137.66400
C         28.39800      -20.61700      136.87400
H         28.25200      -21.10700      135.90900
H         29.44600      -20.70900      137.16100
O         27.58500      -21.25600      137.84400
H         27.95400      -22.12500      138.02800
C         28.86100      -18.52500      135.59600
O         30.08200      -18.66300      135.57500
N         28.21700      -17.89100      134.61600
H         27.21900      -17.77100      134.72500
C         28.83200      -17.23200      133.46800
H         29.74700      -16.72900      133.78200
C         29.17200      -18.29800      132.41600
H         29.86600      -19.01300      132.86100
H         28.25900      -18.84300      132.18000
S         29.89800      -17.72100      130.85300
C         27.85600      -16.19700      132.89600
O         26.66100      -16.47200      132.79600
N         28.34600      -15.04500      132.42900
H         29.33900      -14.87000      132.48200
C         27.52300      -14.06800      131.69000
H         26.70200      -13.74000      132.32900
C         28.37600      -12.85000      131.33100
H         27.78800      -12.16200      130.72100
H         28.67900      -12.33900      132.24600
O         29.53100      -13.25800      130.61700
H         29.99400      -12.47400      130.30200
C         26.90400      -14.66700      130.41600
O         25.82100      -14.26500      130.00200
N         27.54500      -15.69200      129.84900
H         28.44300      -15.94100      130.23300
C         27.03800      -16.51100      128.75000
H         26.76700      -15.84400      127.93100
C         28.18700      -17.40800      128.27100
H         27.83700      -17.92400      127.37500
H         29.02400      -16.77800      127.96900
S         28.81300      -18.68600      129.41000
C         25.77600      -17.33700      129.08200
O         25.15900      -17.87400      128.16700
N         25.37100      -17.43500      130.35500
H         25.92100      -16.98100      131.07400
C         24.09600      -18.03900      130.77500
H         23.82400      -18.81700      130.06000
C         24.25500      -18.70500      132.15400
H         24.52800      -17.95100      132.89200
H         23.29900      -19.13700      132.45000
C         25.31000      -19.81900      132.14900
H         24.97000      -20.62300      131.49500
H         26.23400      -19.42500      131.73100
S         25.70900      -20.51600      133.77700
C         24.15200      -21.35700      134.17400
H         23.91300      -22.07500      133.38900
H         24.25700      -21.88400      135.12300
H         23.34600      -20.62800      134.25800
C         22.92400      -17.03600      130.78800
O         21.79800      -17.40500      131.10100
N         23.14200      -15.76300      130.47400
H         24.06800      -15.44500      130.22400
H         22.36100      -15.13000      130.48600
