68
0 1
H         23.00900      -24.28400      125.49800
C         22.38400      -23.67300      124.84900
H         21.39600      -23.56200      125.29200
H         22.30100      -24.14700      123.87200
C         23.02000      -22.31300      124.69300
O         24.07500      -22.05400      125.25800
N         22.37500      -21.42900      123.93500
H         21.49800      -21.70300      123.51600
C         22.83100      -20.05700      123.66400
H         23.90300      -20.08400      123.46400
C         22.13400      -19.54500      122.39600
H         22.48700      -18.53900      122.16100
H         22.37400      -20.20400      121.56000
O         20.73300      -19.52600      122.58600
H         20.55400      -18.83100      123.23600
C         22.61700      -19.11300      124.86400
O         21.87900      -18.13200      124.77200
N         23.22600      -19.42500      126.01000
H         23.80000      -20.26500      126.02800
C         23.09100      -18.67200      127.25800
H         22.97800      -17.61000      127.03200
C         21.83100      -19.15900      127.99200
H         20.95500      -18.97200      127.36900
H         21.91800      -20.23600      128.13700
S         21.56200      -18.39300      129.61500
C         24.32100      -18.85100      128.16100
O         24.84600      -19.95600      128.28400
N         24.70800      -17.81000      128.90500
H         24.22600      -16.92800      128.79200
C         25.62400      -17.89700      130.05900
H         26.47500      -18.51900      129.78000
C         26.15300      -16.49500      130.38400
H         26.87900      -16.55100      131.19700
H         26.64500      -16.08200      129.50300
O         25.08100      -15.65300      130.75800
H         24.83000      -15.89500      131.66000
C         24.95800      -18.55500      131.28800
O         25.11300      -18.09900      132.41800
N         24.16300      -19.60400      131.06700
H         24.13800      -19.95700      130.12000
C         23.33000      -20.29500      132.05400
H         22.92400      -19.56400      132.75400
C         22.15400      -20.95400      131.30700
H         22.53900      -21.48500      130.43500
H         21.71700      -21.70500      131.96600
S         20.78200      -19.87000      130.79100
C         24.17000      -21.29600      132.87700
O         23.89300      -22.49400      132.89300
N         25.25400      -20.81900      133.49500
H         25.41100      -19.81500      133.47400
C         26.30600      -21.64500      134.09800
H         25.84200      -22.51400      134.56800
C         27.25300      -22.14400      132.98900
H         27.99100      -22.82000      133.42300
H         26.66800      -22.71300      132.26700
C         27.99300      -21.01100      132.26000
H         27.28200      -20.24100      131.96300
H         28.70200      -20.55700      132.95300
S         28.90500      -21.52300      130.77800
C         27.53700      -21.83500      129.62700
H         26.91600      -22.65200      129.99300
H         26.93000      -20.93600      129.52400
H         27.93900      -22.10500      128.65100
C         27.07700      -20.87700      135.18200
O         27.14300      -19.65500      135.17300
N         27.69500      -21.58000      136.12200
H         28.20600      -21.07500      136.82700
H         27.64500      -22.58500      136.12400
