112
1 1
H         38.88100       15.67100       57.21200
C         39.84800       15.19500       57.04900
H         39.79500       14.15200       57.35600
H         40.60500       15.71500       57.63500
C         40.20000       15.28100       55.58500
O         39.42800       15.80500       54.79200
N         41.35200       14.72500       55.20700
H         41.91600       14.30200       55.92800
C         41.94400       14.84800       53.86000
H         42.04300       15.91100       53.63800
C         43.35500       14.22100       53.86300
H         43.25600       13.15200       54.06100
H         43.78400       14.33200       52.86600
C         44.35000       14.81600       54.88000
H         43.96000       14.68500       55.89000
C         45.68300       14.07500       54.78500
H         46.11600       14.20200       53.79200
H         46.37700       14.46700       55.52900
H         45.53300       13.01300       54.97900
C         44.61000       16.30400       54.64200
H         43.70200       16.88000       54.81100
H         45.37000       16.66000       55.33800
H         44.96100       16.46700       53.62200
C         41.09600       14.26700       52.70600
O         41.44100       14.44800       51.53500
N         39.98000       13.59100       52.99800
H         39.72100       13.50600       53.96900
C         38.99900       13.19700       51.98700
H         39.54200       12.87600       51.10000
C         38.20900       11.97800       52.47800
H         37.72900       11.52300       51.61000
H         38.90600       11.24000       52.87800
S         36.91700       12.27900       53.71400
C         38.06500       14.34200       51.54900
O         37.45200       14.21800       50.49500
N         37.94000       15.44100       52.30300
H         38.49300       15.51400       53.15100
C         36.97900       16.52600       52.04500
H         35.97400       16.10500       52.06800
C         37.08000       17.54400       53.19100
H         36.95500       17.01700       54.13800
H         38.08300       17.97500       53.19100
C         36.06500       18.67000       53.13800
C         36.37000       19.87500       52.47500
H         37.33200       20.00300       51.99800
C         35.43000       20.92000       52.43800
H         35.67000       21.84700       51.93600
C         34.18500       20.77100       53.07600
H         33.47100       21.58300       53.06500
C         33.88100       19.57300       53.74500
H         32.93000       19.45800       54.24800
C         34.81500       18.52200       53.76900
H         34.57000       17.60400       54.28500
C         37.15700       17.20600       50.67200
O         38.26800       17.39300       50.17800
N         36.06800       17.60400       50.03000
H         36.17000       18.08500       49.15300
H         35.15400       17.37900       50.39600
H         37.49300        9.03500       46.43700
C         37.95200        9.85700       45.88900
H         37.45900        9.97300       44.92500
H         39.00900        9.64400       45.73100
C         37.81100       11.13400       46.68300
O         38.81400       11.75100       47.04700
N         36.56700       11.53900       46.96000
H         35.79300       10.97500       46.63300
C         36.24300       12.75700       47.71800
H         37.06200       12.94600       48.41000
C         36.11400       13.95700       46.75100
H         36.72900       13.79800       45.86300
H         35.07800       14.02500       46.41300
C         36.51800       15.30000       47.39000
H         35.93200       16.09200       46.92300
H         36.26600       15.29200       48.44800
C         38.00600       15.65600       47.20900
H         38.17700       15.88500       46.15600
H         38.22400       16.55900       47.77800
N         38.91200       14.55700       47.59500
H         38.78200       13.67500       47.11400
C         39.85800       14.54100       48.51300
N         40.54000       13.44900       48.68800
H         40.29700       12.63800       48.13100
H         41.25900       13.42900       49.39100
N         40.14800       15.54200       49.28900
H         39.52200       16.34100       49.32900
H         40.81300       15.40700       50.03800
C         34.97700       12.59200       48.56800
O         33.95900       12.11400       48.08400
N         35.05600       13.01800       49.82300
H         35.94000       13.41400       50.10600
C         33.93100       13.24600       50.72400
H         33.19900       12.44500       50.60900
C         34.45300       13.25400       52.17000
H         35.19300       14.04700       52.26400
H         33.63000       13.50200       52.84300
S         35.20000       11.71000       52.75900
C         33.25500       14.59400       50.42100
O         33.90100       15.53000       49.94300
N         31.98100       14.73700       50.79100
H         31.50100       13.95700       51.21900
C         31.28700       16.03000       50.82600
H         31.25200       16.44700       49.81900
C         29.85100       15.81500       51.31900
H         29.35600       16.77800       51.45000
H         29.29800       15.23200       50.58100
O         29.86300       15.11000       52.54800
H         30.39600       15.60900       53.18300
C         32.00800       17.01700       51.75500
O         32.27400       16.70500       52.91100
N         32.31100       18.21900       51.28300
H         32.80300       18.85800       51.89200
H         32.09500       18.46600       50.33200
