97
1 1
H         48.09100       38.52000       13.71100
C         48.87300       39.26800       13.59700
H         49.83200       38.84000       13.88700
H         48.65600       40.13000       14.22500
C         48.94200       39.70100       12.15200
O         49.97100       39.51900       11.50600
N         47.84800       40.27900       11.64900
H         47.04500       40.36000       12.25100
C         47.69200       40.67100       10.23800
H         46.65300       40.96600       10.08200
C         48.58200       41.92100       10.00600
H         48.54000       42.54900       10.89700
H         49.62000       41.62100        9.86300
C         48.16100       42.79500        8.83500
O         47.44800       42.38100        7.94100
N         48.59700       44.03000        8.79300
H         49.18800       44.39800        9.51400
H         48.29400       44.58000        8.00700
C         47.95500       39.46900        9.28700
O         47.90800       38.31100        9.70200
N         48.26100       39.71500        8.01200
H         48.17100       40.66800        7.67400
C         48.65200       38.68200        7.04900
H         47.84700       37.94700        6.99600
C         48.77300       39.34500        5.67000
H         48.94400       38.57400        4.92300
H         47.80600       39.79400        5.43300
S         50.04200       40.62600        5.46200
C         49.94000       37.91700        7.43600
O         50.21500       36.85600        6.86600
N         50.73200       38.42600        8.39100
H         50.42400       39.26900        8.85400
C         51.97500       37.80200        8.87800
H         52.53500       37.43000        8.02100
C         52.87400       38.82900        9.60200
H         52.35300       39.21000       10.47900
C         54.19600       38.20300       10.06500
H         54.73000       37.77800        9.21500
H         54.82100       38.96400       10.53500
H         54.01100       37.42100       10.80200
C         53.22000       40.01700        8.69500
H         53.86800       40.71300        9.22800
H         53.73300       39.66700        7.79900
H         52.31600       40.55300        8.40600
C         51.67300       36.60600        9.78700
O         52.25900       35.53900        9.61600
N         50.71500       36.72000       10.69600
H         50.23200       37.60400       10.80900
H         50.49800       35.93300       11.28300
H         44.84400       37.72800        2.73500
C         45.42900       36.87100        2.40300
H         45.78200       37.04500        1.38800
H         44.81000       35.97600        2.43300
C         46.61300       36.69700        3.32400
O         46.78200       37.46300        4.26600
N         47.44300       35.68500        3.06000
H         47.25600       35.13000        2.23900
C         48.69500       35.44000        3.79200
H         48.56200       35.79500        4.81400
C         48.98500       33.92400        3.81000
H         48.08300       33.38500        4.10600
H         49.24100       33.60600        2.79700
C         50.13200       33.51500        4.75200
H         50.42500       32.49000        4.52100
H         50.99400       34.15500        4.57200
C         49.71600       33.57500        6.23200
H         49.21800       34.51800        6.45200
H         48.99700       32.77600        6.42200
C         50.89500       33.40700        7.19700
H         50.49300       33.37200        8.21400
H         51.40200       32.45800        6.99900
N         51.85500       34.53000        7.10000
H         51.37500       35.41800        6.97200
H         52.38700       34.63200        7.96000
H         52.50300       34.42500        6.32100
C         49.85400       36.22600        3.16800
O         50.03200       36.19500        1.95500
N         50.69100       36.85000        3.99600
H         50.48000       36.84700        4.98600
C         51.97600       37.42300        3.59500
H         52.15900       37.18000        2.54700
C         51.93000       38.95600        3.69700
H         52.83300       39.35700        3.23500
H         51.08100       39.32200        3.11800
S         51.82700       39.64100        5.37400
C         53.11200       36.78900        4.41900
O         53.00100       36.64400        5.63700
N         54.19300       36.36700        3.75500
H         54.21900       36.49600        2.75500
C         55.31300       35.65200        4.38400
H         56.12100       35.56400        3.65700
H         55.68700       36.23900        5.22400
C         54.97200       34.24200        4.90200
O         53.82100       33.89300        5.15900
N         55.98100       33.40200        5.08100
H         55.77900       32.47200        5.41200
H         56.92600       33.68500        4.87800
