97
1 1
H         47.81900       35.01700       16.83500
C         47.78600       36.04400       16.47600
H         48.47300       36.66000       17.05400
H         46.77300       36.42900       16.58700
C         48.17000       36.08000       15.01700
O         47.36800       36.48300       14.18700
N         49.40400       35.66700       14.72000
H         49.96300       35.36500       15.50300
C         50.04000       35.57300       13.39200
H         51.09100       35.34800       13.58100
C         49.47800       34.35300       12.63400
H         49.43600       33.49400       13.30300
H         48.46600       34.56300       12.28800
C         50.33400       33.99800       11.42900
O         50.38900       34.73100       10.46000
N         51.05100       32.90000       11.45900
H         51.00000       32.26300       12.23100
H         51.63200       32.68700       10.64900
C         50.07500       36.88100       12.56000
O         51.16300       37.38700       12.29200
N         48.93000       37.46800       12.19700
H         48.06300       37.03100       12.49300
C         48.85700       38.76200       11.50500
H         49.44800       38.70400       10.60000
C         47.40900       39.05600       11.09200
H         46.77400       39.03000       11.97900
H         47.36900       40.06900       10.68600
S         46.69300       37.94700        9.84500
C         49.42800       39.92500       12.33600
O         49.99400       40.86200       11.77600
N         49.32500       39.84700       13.66800
H         48.86700       39.03000       14.04200
C         49.79500       40.86800       14.62500
H         49.18700       41.75900       14.46300
C         49.52600       40.38400       16.06700
H         48.47800       40.08400       16.12200
C         50.37800       39.17100       16.46500
H         50.24100       38.36200       15.74900
H         51.43400       39.44000       16.49500
H         50.07700       38.82100       17.45300
C         49.73300       41.48800       17.10900
H         50.78600       41.75700       17.18700
H         49.14800       42.36800       16.84100
H         49.39400       41.13600       18.08400
C         51.26300       41.28000       14.40500
O         52.10200       40.48700       13.98400
N         51.60600       42.53300       14.67000
H         50.91900       43.19000       15.00100
H         52.56200       42.81100       14.52300
H         54.21400       31.65700        6.62300
C         54.48000       31.56100        7.67400
H         55.55600       31.67300        7.79600
H         54.17500       30.57900        8.03600
C         53.76700       32.62500        8.47500
O         52.98700       32.30400        9.36900
N         54.02700       33.89700        8.15200
H         54.66000       34.07200        7.38600
C         53.41100       35.05100        8.82200
H         52.72700       34.67700        9.58400
C         54.47900       35.88600        9.55600
H         55.18300       35.22600       10.06600
H         55.02900       36.48800        8.83100
C         53.81200       36.79200       10.60400
H         52.89500       37.19200       10.18900
H         53.54700       36.18800       11.47400
C         54.69000       37.96900       11.05100
H         55.57600       37.57600       11.55100
H         55.01000       38.54500       10.18100
C         53.93900       38.89200       12.02400
H         53.53900       38.29000       12.84500
H         54.64500       39.61100       12.44800
N         52.82400       39.62800       11.37900
H         53.14600       40.23800       10.63200
H         52.14900       38.98600       10.97000
H         52.31700       40.17400       12.07300
C         52.58400       35.90800        7.85700
O         53.11800       36.50900        6.92600
N         51.29600       36.04500        8.15500
H         50.95000       35.50200        8.93900
C         50.42800       37.11400        7.66900
H         50.30400       37.03500        6.58800
C         49.07300       36.91100        8.35800
H         48.62900       35.98000        8.00500
H         49.26000       36.79100        9.42500
S         47.84800       38.23000        8.18500
C         51.05000       38.47700        8.02400
O         51.30400       38.75500        9.19600
N         51.37000       39.31100        7.03000
H         51.15600       39.04600        6.08000
C         52.13100       40.54600        7.26800
H         52.29600       41.05500        6.31900
H         51.55700       41.20600        7.92100
C         53.49700       40.27900        7.92000
O         53.80800       40.81700        8.98000
N         54.29000       39.36800        7.37100
H         55.18600       39.18800        7.79200
H         53.98000       38.84200        6.56800
