97
1 1
H         53.02200       35.15000        3.74300
C         52.00400       34.84400        3.97600
H         52.01900       33.85200        4.42600
H         51.40600       34.82000        3.06700
C         51.39600       35.81900        4.95500
O         50.98700       35.43500        6.04300
N         51.29000       37.08700        4.56000
H         51.58400       37.31000        3.62200
C         50.74800       38.18500        5.38000
H         51.16800       38.06900        6.38100
C         51.26800       39.53100        4.82800
H         50.90500       40.34100        5.46000
H         52.35600       39.53200        4.88900
C         50.87900       39.84300        3.39000
O         50.09100       39.15600        2.75600
N         51.43200       40.89800        2.83600
H         52.08900       41.46000        3.34400
H         51.17400       41.15800        1.88600
C         49.20900       38.13600        5.58400
O         48.55000       39.16800        5.71100
N         48.62100       36.93700        5.61900
H         49.22700       36.12500        5.58300
C         47.17500       36.70900        5.64100
H         46.73600       37.23500        4.80400
C         46.91600       35.21400        5.42500
H         47.33500       34.65900        6.26600
H         45.83800       35.04200        5.41700
S         47.61200       34.52600        3.89300
C         46.47000       37.22400        6.91000
O         45.29000       37.56400        6.85400
N         47.18700       37.31900        8.03600
H         48.16000       37.06200        7.98500
C         46.66900       37.78200        9.33700
H         45.85200       37.11500        9.61100
C         47.76400       37.63300       10.41600
H         48.12500       36.60400       10.37600
C         48.96800       38.55800       10.19000
H         48.67000       39.60300       10.27500
H         49.73400       38.35000       10.93800
H         49.39800       38.38900        9.20300
C         47.22800       37.86700       11.83300
H         46.36200       37.23100       12.01400
H         48.00000       37.61100       12.55900
H         46.95400       38.91200       11.97700
C         46.08800       39.20600        9.27700
O         46.55600       40.06700        8.53400
N         45.04800       39.48800       10.05000
H         44.65600       38.78200       10.65200
H         44.66300       40.41700       10.02000
H         49.22900       43.19400       -2.18200
C         49.69900       43.68100       -1.33000
H         49.21100       44.63300       -1.13100
H         50.75300       43.85200       -1.54600
C         49.58500       42.79100       -0.11400
O         50.59600       42.38500        0.45400
N         48.35000       42.47300        0.28900
H         47.56600       42.81800       -0.24700
C         48.07300       41.62300        1.45600
H         49.01200       41.17000        1.76200
C         47.56400       42.47500        2.63900
H         47.97200       43.48500        2.57200
H         46.47500       42.54100        2.60300
C         48.02000       41.86800        3.97600
H         47.83300       40.79800        3.96200
H         49.09700       42.01600        4.05900
C         47.36400       42.48700        5.22100
H         47.95800       42.22500        6.09900
H         47.37800       43.57400        5.12200
C         45.91800       42.02200        5.45000
H         45.45700       42.66400        6.20500
H         45.35500       42.13300        4.52000
N         45.85200       40.61400        5.90500
H         46.28600       40.47400        6.81400
H         44.88800       40.29100        5.94200
H         46.31800       40.00000        5.24000
C         47.12500       40.47100        1.12300
O         46.00900       40.69500        0.66000
N         47.54100       39.24600        1.43700
H         48.47500       39.15600        1.82300
C         46.63200       38.11100        1.59400
H         46.11800       37.91800        0.65100
C         47.46900       36.88400        1.98000
H         48.15200       36.64400        1.16300
H         48.07700       37.15100        2.84500
S         46.52600       35.39300        2.39900
C         45.59000       38.43500        2.68100
O         45.92300       39.12200        3.64500
N         44.34700       37.95600        2.56800
H         44.11800       37.37400        1.77600
C         43.32000       38.18400        3.59800
H         42.38700       37.71800        3.28400
H         43.63800       37.72200        4.53400
C         43.05000       39.67400        3.86300
O         43.20900       40.15600        4.98100
N         42.72800       40.44400        2.83200
H         42.56100       41.42300        2.99400
H         42.65900       40.05200        1.90700
