100
-1 1
H          9.40400        8.69000       31.29200
C         10.40700        8.42200       30.96300
H         10.49300        7.34100       30.88400
H         11.12900        8.80300       31.68100
C         10.67800        9.04500       29.61500
O         11.19300        8.37400       28.72700
N         10.35000       10.32800       29.46300
H          9.93600       10.79700       30.26700
C         10.53500       11.08000       28.20900
H         11.38800       10.64200       27.68900
C          9.31700       10.89700       27.28800
H          9.55300       11.31500       26.30900
H          9.14200        9.82900       27.14700
C          8.03300       11.52000       27.77800
N          7.26600       11.05100       28.84200
C          6.18000       11.82800       28.88800
H          5.38900       11.71900       29.61500
N          6.21900       12.75400       27.91600
H          5.50300       13.45900       27.75400
C          7.38900       12.58100       27.20800
H          7.73000       13.14400       26.35100
C         10.90200       12.56400       28.38400
O         11.09400       13.25800       27.38700
N         11.05600       13.05700       29.61700
H         10.79200       12.46400       30.40100
C         11.61300       14.39000       29.90000
H         12.32100       14.64500       29.11000
C         10.47400       15.41400       29.86200
H         10.91600       16.41100       29.84700
H          9.92000       15.28200       28.93200
S          9.31100       15.34500       31.25100
C         12.38300       14.48100       31.23200
O         13.26900       15.31600       31.38300
N         12.06900       13.60500       32.18400
H         11.29700       12.97500       31.99000
C         12.66600       13.49300       33.51800
H         12.79200       14.49700       33.92500
C         11.67700       12.73200       34.42600
H         12.10400       12.71000       35.43000
H         10.74500       13.29500       34.49300
C         11.36000       11.27700       34.01700
H         12.23100       10.82200       33.54100
H         11.16600       10.71200       34.93200
C         10.13700       11.14500       33.09100
O         10.16900       11.66700       31.95100
O          9.14700       10.51100       33.50600
C         14.06400       12.84000       33.53500
O         14.72700       12.80500       34.56500
N         14.55000       12.31400       32.41600
H         14.00400       12.35900       31.57300
H         15.46400       11.89700       32.44100
H          6.74100        9.04100       32.75500
C          6.44500        9.66900       31.91700
H          5.71900        9.15500       31.29100
H          7.33300        9.91000       31.33400
C          5.85400       10.95000       32.44500
O          4.69500       11.25600       32.16800
N          6.64800       11.71600       33.18900
H          7.59400       11.35900       33.34500
C          6.24100       12.95700       33.87800
H          5.48900       12.70500       34.62500
C          7.45400       13.57900       34.60600
H          8.29800       13.62100       33.91700
C          7.19500       15.00300       35.12100
H          6.30600       15.01600       35.75400
H          8.05300       15.34900       35.69700
H          7.05600       15.68900       34.28600
C          7.84700       12.72700       35.82100
H          8.74100       13.13800       36.28800
H          7.03400       12.70800       36.54700
H          8.06600       11.70600       35.51100
C          5.58900       13.95900       32.92200
O          4.52900       14.50600       33.22700
N          6.14900       14.15000       31.72500
H          7.01100       13.66200       31.52000
C          5.58000       15.03600       30.70300
H          5.16300       15.89800       31.22500
C          6.68800       15.59100       29.79700
H          7.22700       14.77200       29.32000
H          6.22400       16.19500       29.01700
S          7.86900       16.64900       30.67100
C          4.38400       14.42500       29.93400
O          4.17400       14.73900       28.76300
N          3.61000       13.53500       30.56300
H          3.89900       13.23500       31.48800
C          2.20200       13.27400       30.20100
H          2.07300       13.39500       29.12500
C          1.75900       11.85000       30.57300
H          0.68200       11.78100       30.41500
C          2.41400       10.76700       29.71900
H          3.48700       10.73600       29.89200
H          1.98800        9.79800       29.98000
H          2.22300       10.96400       28.66400
O          2.02000       11.56700       31.92700
H          2.97300       11.38100       32.02100
C          1.24500       14.26400       30.87700
O          0.14000       14.48100       30.39300
N          1.63900       14.91400       31.96800
H          2.54000       14.71700       32.38300
H          0.99600       15.55600       32.39900
