100
-1 1
H         17.38900        8.78700       26.78700
C         16.56000        8.56700       27.45800
H         16.77300        8.96800       28.44700
H         16.41000        7.49100       27.51600
C         15.30800        9.21500       26.91600
O         15.35100        9.86000       25.87800
N         14.19600        9.04500       27.62900
H         14.25000        8.51400       28.48600
C         12.87700        9.58100       27.27400
H         12.99200       10.52700       26.74200
C         12.15100        8.59000       26.34400
H         12.60700        8.62500       25.35400
H         12.26300        7.57900       26.73700
C         10.67700        8.88400       26.21900
N         10.13400        9.98100       25.55100
C          8.82900        9.99000       25.86100
H          8.12700       10.74100       25.52600
N          8.53800        8.98500       26.70400
H          7.64700        8.87200       27.20000
C          9.69200        8.27500       26.94200
H          9.82200        7.46200       27.64200
C         12.03700        9.83700       28.53200
O         12.08600        9.04300       29.47100
N         11.22100       10.89500       28.52200
H         11.22500       11.48900       27.70400
C         10.06300       11.02900       29.40500
H          9.57900       10.05900       29.46000
C         10.51100       11.44700       30.81500
H         11.25700       10.74300       31.18600
H         10.98000       12.42800       30.74200
S          9.17300       11.55300       32.03600
C          9.04600       12.03100       28.83600
O          9.40000       13.17200       28.55100
N          7.78200       11.62600       28.68700
H          7.55600       10.64700       28.84800
C          6.68700       12.49300       28.21800
H          7.11100       13.21500       27.51800
C          5.65000       11.66700       27.42600
H          5.03000       12.37400       26.87400
H          6.16300       11.05900       26.68100
C          4.69500       10.77000       28.23900
H          4.20200       11.37000       29.00600
H          3.91700       10.41700       27.55900
C          5.33800        9.54000       28.89300
O          6.48300        9.15800       28.55800
O          4.68400        8.91700       29.75600
C          6.02600       13.33600       29.32800
O          5.16800       14.16600       29.05500
N          6.39300       13.15200       30.59100
H          5.95200       13.71100       31.30100
H          7.11500       12.48600       30.81200
H          1.54300        6.55000       27.38700
C          2.34700        6.93500       28.01100
H          1.97000        7.14400       29.01000
H          2.75000        7.84900       27.57800
C          3.44000        5.89800       28.10800
O          3.25800        4.77200       27.65900
N          4.57600        6.28700       28.68600
H          4.60800        7.24200       29.03600
C          5.75600        5.43200       28.90900
H          5.43400        4.39100       28.94300
C          6.79400        5.57400       27.76900
H          7.11900        6.61200       27.71200
C          8.03600        4.70400       28.01400
H          8.73100        4.80700       27.18100
H          8.55000        5.01800       28.92300
H          7.74300        3.65800       28.11200
C          6.22900        5.18500       26.39600
H          7.00700        5.25300       25.63700
H          5.83700        4.16800       26.42900
H          5.42600        5.86600       26.11900
C          6.38800        5.74800       30.26500
O          6.42900        4.89200       31.14400
N          6.83900        6.98800       30.46300
H          6.68600        7.67100       29.72300
C          7.39600        7.48100       31.72700
H          8.13300        6.77000       32.10400
C          8.09400        8.80000       31.39500
H          8.82300        8.58700       30.61600
H          7.34800        9.48600       30.99300
S          8.95400        9.64900       32.73900
C          6.31600        7.66900       32.80900
O          6.56400        7.46900       33.99500
N          5.09900        8.01300       32.38600
H          4.99100        8.20200       31.39300
C          3.88400        8.07600       33.21400
H          4.14200        8.50900       34.17900
C          2.83200        8.98300       32.55100
H          1.91700        8.94800       33.14200
C          3.28300       10.44300       32.47200
H          2.49200       11.03900       32.01700
H          3.47800       10.81800       33.47600
H          4.18800       10.53500       31.87200
O          2.53400        8.55700       31.24100
H          3.31200        8.75200       30.67500
C          3.26600        6.70000       33.50800
O          2.31600        6.60300       34.27900
N          3.77900        5.61000       32.94600
H          3.36300        4.72100       33.16000
H          4.58800        5.67700       32.34800
