100
-1 1
H          3.94500       14.04000       29.56800
C          4.03800       14.86000       30.27800
H          3.13600       15.46600       30.25500
H          4.89900       15.47500       30.02800
C          4.21100       14.29500       31.66700
O          4.16800       13.08300       31.84700
N          4.43000       15.16700       32.64900
H          4.41500       16.15600       32.42700
C          4.71900       14.79600       34.04400
H          5.47100       14.00700       34.03000
C          5.33200       15.99900       34.78400
H          5.30400       15.82400       35.86000
H          6.38100       16.07000       34.49600
C          4.69500       17.33300       34.47700
N          4.98700       18.10900       33.35300
C          4.20700       19.19500       33.44600
H          4.18300       19.99900       32.72300
N          3.44300       19.13300       34.54700
H          2.72400       19.81400       34.78000
C          3.73300       17.96000       35.21300
H          3.28500       17.58900       36.12400
C          3.53700       14.18300       34.81500
O          3.76600       13.59500       35.87000
N          2.31200       14.25300       34.29100
H          2.17800       14.82900       33.46200
C          1.17900       13.41700       34.72100
H          1.48600       12.74700       35.52500
C          0.07100       14.33300       35.24200
H         -0.22000       14.99300       34.42400
H         -0.79600       13.72700       35.50500
S          0.50200       15.35800       36.67200
C          0.62000       12.54300       33.57900
O         -0.11200       11.58700       33.81900
N          0.92200       12.90900       32.33500
H          1.46000       13.76500       32.23600
C          0.34300       12.38400       31.10100
H         -0.68000       12.05700       31.29400
C          0.31000       13.52700       30.06700
H          1.32400       13.84600       29.82900
H         -0.12500       13.12400       29.15100
C         -0.53800       14.75000       30.47500
H         -0.87500       15.22400       29.55000
H         -1.43300       14.40300       30.99200
C          0.16500       15.83400       31.32300
O          1.20200       15.57600       31.97400
O         -0.35800       16.97300       31.33700
C          1.09700       11.17000       30.52700
O          0.55600       10.42700       29.71500
N          2.34400       10.93600       30.91800
H          2.82500       10.13800       30.54400
H          2.80500       11.58500       31.54500
H         -3.59900       17.77900       28.76000
C         -2.71800       18.13700       29.28600
H         -2.32800       19.03000       28.79900
H         -1.94700       17.37000       29.28200
C         -3.08900       18.47700       30.71000
O         -3.14800       19.64900       31.06300
N         -3.36200       17.45700       31.52400
H         -3.19900       16.52600       31.17600
C         -3.88500       17.61200       32.89900
H         -4.74400       18.28100       32.84900
C         -4.38200       16.27100       33.47700
H         -4.83600       16.47100       34.44800
C         -5.46700       15.64700       32.58900
H         -5.05100       15.34100       31.62900
H         -5.88700       14.77300       33.08600
H         -6.26500       16.37100       32.42300
C         -3.26400       15.24200       33.68800
H         -3.68300       14.31700       34.08600
H         -2.75700       15.02800       32.75000
H         -2.54200       15.62300       34.40900
C         -2.90600       18.27400       33.87800
O         -3.34600       18.80700       34.89300
N         -1.60400       18.26900       33.57700
H         -1.31700       17.76600       32.74000
C         -0.56300       18.94700       34.35700
H         -1.02600       19.63000       35.07000
C          0.22800       17.89700       35.14000
H          0.65900       17.19200       34.42600
H          1.04700       18.39700       35.65400
S         -0.69700       16.97100       36.38900
C          0.39200       19.78600       33.48800
O          1.08300       20.66300       34.00800
N          0.45900       19.51700       32.18300
H         -0.03900       18.69400       31.85200
C          1.20400       20.29600       31.17700
H          2.11100       20.68900       31.63100
C          1.61400       19.40500       29.99300
H          2.00100       20.04200       29.19600
C          2.71100       18.40800       30.35600
H          3.62700       18.94500       30.59500
H          2.41300       17.80600       31.21400
H          2.90100       17.75700       29.50400
O          0.51800       18.68300       29.48300
H          0.25100       18.02400       30.15800
C          0.43100       21.50500       30.63800
O          1.04000       22.43800       30.12700
N         -0.89000       21.55300       30.75500
H         -1.40500       20.76900       31.13400
H         -1.37400       22.35900       30.39900
