88
0 1
H         21.51800      -14.84900       37.25900
C         21.32100      -13.96100       37.85700
H         20.80800      -13.21400       37.25300
H         22.26100      -13.55300       38.22400
C         20.45200      -14.33800       39.03200
O         20.86600      -14.18200       40.17600
N         19.25200      -14.84000       38.74700
H         19.02000      -14.98500       37.77700
C         18.31000      -15.35900       39.74900
H         18.45400      -14.82100       40.68700
C         16.84500      -15.12200       39.29900
H         16.74200      -15.42500       38.25600
C         15.84800      -15.96100       40.12100
H         14.82600      -15.74200       39.81000
H         16.01400      -17.02600       39.95600
H         15.95100      -15.73200       41.18300
C         16.40100      -13.64500       39.43700
H         16.56800      -13.30900       40.46200
H         15.32900      -13.58700       39.24300
C         17.07100      -12.65300       38.47700
H         18.10500      -12.47800       38.76900
H         17.03000      -13.03400       37.45600
H         16.54100      -11.70000       38.52000
C         18.62100      -16.84200       40.00500
O         18.65200      -17.64200       39.07400
N         18.80300      -17.20800       41.27500
H         18.65000      -16.49800       41.98100
C         19.06100      -18.57200       41.74300
H         18.70000      -19.28900       41.00400
C         20.57100      -18.81000       41.94100
H         20.99800      -17.97800       42.49700
H         20.67700      -19.69400       42.57000
S         21.56900      -19.13200       40.45600
C         18.28500      -18.80900       43.04900
O         18.81800      -18.63800       44.14500
N         17.00900      -19.18600       42.94200
H         16.61400      -19.30200       42.01900
C         16.09700      -19.42500       44.07900
H         16.27200      -18.65300       44.82700
C         14.63000      -19.30200       43.62800
H         13.97700      -19.49800       44.48000
C         14.29700      -17.91600       43.07800
H         14.85000      -17.73300       42.15900
H         13.23000      -17.86400       42.86300
H         14.54900      -17.15300       43.81400
O         14.36200      -20.24200       42.61500
H         14.39900      -21.11000       43.03900
C         16.35500      -20.77500       44.77100
O         15.48000      -21.63000       44.85700
N         17.56900      -21.01600       45.24400
H         18.28800      -20.31000       45.14900
H         17.75000      -21.90300       45.68300
H         17.98200      -16.78600       45.96800
C         17.52100      -15.88500       45.56500
H         17.56600      -15.08600       46.30100
H         16.48200      -16.08500       45.30700
C         18.26500      -15.46200       44.32100
O         17.68800      -15.42900       43.24000
N         19.55100      -15.15600       44.46900
H         19.97300      -15.29500       45.37400
C         20.43000      -14.68700       43.39700
H         19.93500      -14.83300       42.43800
C         20.67000      -13.18200       43.56700
H         21.28500      -12.81300       42.74600
H         19.71500      -12.65400       43.55500
H         21.17900      -12.98900       44.51200
C         21.74300      -15.48600       43.35700
O         22.19800      -16.00000       44.37800
N         22.35600      -15.59600       42.17800
H         21.92900      -15.12300       41.38600
C         23.49400      -16.47900       41.89300
H         23.31000      -17.42800       42.39800
C         23.53100      -16.76400       40.38400
H         23.84300      -15.85200       39.87300
H         24.29000      -17.52300       40.18900
S         21.97200      -17.31300       39.63300
C         24.85300      -15.96200       42.42500
O         25.86100      -16.01400       41.72200
N         24.89200      -15.44600       43.65800
H         24.03300      -15.49300       44.19600
C         26.06100      -14.82400       44.29900
H         26.51500      -14.12800       43.59400
H         25.72700      -14.25600       45.16800
C         27.15700      -15.79500       44.76200
O         27.70800      -15.63200       45.84200
N         27.46700      -16.83500       44.00000
H         28.17900      -17.47000       44.31900
H         27.03700      -16.92300       43.09000
