88
0 1
H         11.01900      -18.36400       48.27400
C         11.08800      -18.83900       47.29800
H         10.65400      -19.83700       47.34700
H         12.13100      -18.91600       47.00400
C         10.32700      -18.01200       46.29000
O          9.28500      -18.44300       45.81200
N         10.84900      -16.82300       45.98800
H         11.75900      -16.61200       46.37700
C         10.19200      -15.78200       45.17100
H          9.18700      -16.13100       44.92700
C         10.03500      -14.49700       46.01900
H          9.54100      -14.78600       46.94900
C         11.39600      -13.86800       46.38200
H         11.88700      -13.48000       45.48800
H         11.25200      -13.04800       47.08500
H         12.04500      -14.60200       46.85800
C          9.12400      -13.47100       45.30800
H          8.24800      -13.99200       44.91800
H          9.65300      -13.02400       44.46500
C          8.62300      -12.35000       46.22700
H          7.91900      -11.72400       45.67800
H          8.11500      -12.77700       47.09300
H          9.45300      -11.72900       46.56000
C         10.88400      -15.52400       43.82000
O         10.23300      -15.11300       42.86300
N         12.18600      -15.80200       43.70600
H         12.66400      -16.15800       44.52400
C         12.85600      -15.92300       42.40700
H         12.64700      -15.03000       41.81500
C         14.37700      -15.99700       42.64600
H         14.78000      -14.98400       42.61300
H         14.56200      -16.36800       43.65200
S         15.34000      -17.03400       41.51200
C         12.29100      -17.13300       41.63400
O         11.91700      -18.13600       42.23700
N         12.23500      -17.08000       40.30200
H         12.58100      -16.26400       39.81900
C         11.75500      -18.20000       39.47300
H         10.78300      -18.52700       39.84200
C         11.59200      -17.75200       38.01200
H         11.37000      -18.62400       37.39600
C         10.46500      -16.73400       37.83800
H          9.52500      -17.16200       38.18600
H         10.68100      -15.82700       38.40200
H         10.37100      -16.48100       36.78200
O         12.78500      -17.15500       37.55600
H         13.49600      -17.78900       37.73400
C         12.71600      -19.39300       39.52900
O         13.83500      -19.32100       39.03100
N         12.30100      -20.51700       40.09600
H         12.92600      -21.30500       40.11100
H         11.39400      -20.56900       40.54500
H         19.75700      -17.00400       46.78000
C         19.23700      -17.53600       45.98600
H         19.81600      -18.41200       45.69500
H         19.10600      -16.88500       45.12300
C         17.88400      -17.98700       46.48300
O         17.59200      -19.17600       46.48200
N         17.04900      -17.03600       46.89800
H         17.37000      -16.08300       46.86400
C         15.68800      -17.27600       47.39300
H         15.71800      -18.14000       48.06000
C         15.25900      -16.05800       48.22600
H         14.27300      -16.23800       48.65700
H         15.97000      -15.89300       49.03700
H         15.21500      -15.16800       47.59600
C         14.69300      -17.62500       46.26000
O         13.71500      -16.90600       46.02900
N         14.97200      -18.69400       45.51400
H         15.79600      -19.23300       45.76400
C         14.19600      -19.14800       44.35900
H         13.62900      -18.30300       43.98200
C         15.15800      -19.57900       43.24300
H         15.71300      -20.45200       43.59100
H         14.58300      -19.87500       42.36400
S         16.36000      -18.30800       42.74200
C         13.16400      -20.23500       44.71400
O         13.30800      -20.96400       45.69200
N         12.10300      -20.30900       43.91400
H         12.06400      -19.65600       43.13900
C         10.90000      -21.10600       44.13000
H         11.14000      -22.16600       44.05100
H         10.50100      -20.91000       45.12500
C          9.84500      -20.75900       43.07500
O         10.02300      -21.03400       41.89200
N          8.74500      -20.13700       43.47300
H          8.05800      -19.88600       42.78200
H          8.67000      -19.80700       44.42700
