88
0 1
H         23.12800      -12.02000       43.20300
C         22.56600      -11.09100       43.29000
H         22.36400      -10.68800       42.29900
H         23.13700      -10.36600       43.86800
C         21.26100      -11.36800       43.99700
O         21.03400      -12.47200       44.47600
N         20.38600      -10.36700       44.05200
H         20.64200       -9.48800       43.61100
C         19.05100      -10.46600       44.66300
H         19.13600      -11.07500       45.56500
C         18.52600       -9.07100       45.09700
H         18.34500       -8.47500       44.20200
C         17.19400       -9.22100       45.86300
H         16.45900       -9.76700       45.27300
H         17.35800       -9.75000       46.80300
H         16.76600       -8.24200       46.07500
C         19.55900       -8.31900       45.97400
H         20.50100       -8.23300       45.43300
H         19.74600       -8.88900       46.88500
C         19.14700       -6.89100       46.35600
H         18.87700       -6.32900       45.46100
H         18.30700       -6.90500       47.05000
H         19.98600       -6.39500       46.84500
C         18.11300      -11.20800       43.69500
O         17.28600      -10.59900       43.01600
N         18.29600      -12.52400       43.56600
H         19.08100      -12.91700       44.07700
C         17.63800      -13.40100       42.58400
H         17.60600      -12.88600       41.63700
C         18.52100      -14.62700       42.33700
H         18.64400      -15.16700       43.27600
H         18.01600      -15.29200       41.63400
S         20.16300      -14.23800       41.66400
C         16.15900      -13.72600       42.87700
O         15.74900      -14.88200       42.80700
N         15.36300      -12.69500       43.18600
H         15.80700      -11.78300       43.15500
C         13.90000      -12.68900       43.41100
H         13.62700      -11.66200       43.65400
C         13.16100      -13.01000       42.09800
H         13.49800      -13.97100       41.70900
C         11.63800      -13.04300       42.22900
H         11.19200      -13.15500       41.24100
H         11.33100      -13.88700       42.84600
H         11.28400      -12.11500       42.67900
O         13.44100      -12.00200       41.15200
H         14.38500      -12.03300       40.92300
C         13.38100      -13.51800       44.60100
O         12.50100      -13.06500       45.32100
N         13.90900      -14.69800       44.88400
H         13.55500      -15.20500       45.67800
H         14.62500      -15.08100       44.28200
H         18.50700      -15.39300       36.85200
C         18.27000      -14.76700       35.99300
H         17.55700      -15.27400       35.34600
H         19.18200      -14.55600       35.43600
C         17.67700      -13.46400       36.47200
O         18.24100      -12.40400       36.23200
N         16.54200      -13.54100       37.16500
H         16.14700      -14.45300       37.32400
C         15.83700      -12.39100       37.74300
H         15.83500      -11.58600       37.00500
C         14.37700      -12.80100       37.98800
H         13.81300      -11.94400       38.35600
H         13.92400      -13.14200       37.05600
H         14.32800      -13.60100       38.72800
C         16.54700      -11.84200       39.00400
O         16.00300      -11.88900       40.11000
N         17.79000      -11.38000       38.84100
H         18.16900      -11.40200       37.89900
C         18.70500      -10.99700       39.91700
H         18.27300      -11.25700       40.87000
C         20.00600      -11.79800       39.76200
H         20.46900      -11.49800       38.82000
H         20.69100      -11.52000       40.56300
S         19.84800      -13.61200       39.74200
C         18.95500       -9.48400       39.96500
O         19.62500       -8.92500       39.10000
N         18.45100       -8.82300       41.01100
H         17.89900       -9.34200       41.68600
C         18.73400       -7.41200       41.28300
H         18.56200       -6.83300       40.37500
H         18.05800       -7.04600       42.05600
C         20.17600       -7.18800       41.75500
O         20.71500       -7.95600       42.54700
N         20.82000       -6.12300       41.29900
H         21.77000       -5.97700       41.59700
H         20.38200       -5.51500       40.62700
