102
-2 1
H         18.99400        4.96000       16.62600
C         19.90600        4.36700       16.62900
H         20.23700        4.17200       15.61000
H         19.73900        3.41400       17.12900
C         20.99300        5.11600       17.36100
O         20.75200        6.21400       17.85300
N         22.17800        4.51700       17.42900
H         22.24000        3.58000       17.03000
C         23.34500        5.04300       18.14800
H         23.27000        6.12900       18.20000
C         23.31200        4.49900       19.59000
H         22.60900        5.09700       20.17000
H         22.92200        3.48000       19.57400
C         24.65000        4.47800       20.30600
C         25.27400        5.68100       20.68700
H         24.79300        6.62500       20.47700
C         26.53600        5.65500       21.30800
H         27.02100        6.58100       21.58000
C         27.17700        4.42700       21.55000
H         28.15300        4.40800       22.01200
C         26.55500        3.22400       21.17300
H         27.05200        2.27900       21.34400
C         25.29400        3.24900       20.55100
H         24.82500        2.32500       20.23900
C         24.68000        4.74700       17.44200
O         25.46800        5.66800       17.23400
N         24.94300        3.48900       17.07500
H         24.24500        2.78500       17.30600
C         26.21300        3.05600       16.46300
H         26.55600        3.82700       15.77300
C         27.24100        2.91200       17.59800
H         27.36700        3.88100       18.08400
H         26.82100        2.22800       18.33600
S         28.88200        2.27900       17.15700
C         26.07900        1.74200       15.66400
O         26.70800        1.55300       14.62700
N         25.20600        0.84900       16.12400
H         24.74100        1.07300       17.00000
C         24.73300       -0.35700       15.43300
H         25.59300       -0.99500       15.22900
C         23.77600       -1.11400       16.38300
H         23.57600       -2.09700       15.95500
H         24.29500       -1.27900       17.32900
C         22.41500       -0.44200       16.68400
H         21.78600       -0.52100       15.79500
H         21.92000       -1.00400       17.48000
C         22.53100        1.03300       17.10200
O         23.27500        1.33200       18.06300
O         22.01400        1.90900       16.37900
C         24.04900       -0.08700       14.07700
O         24.09900       -0.92400       13.18200
N         23.41600        1.06400       13.87900
H         23.00000        1.23500       12.98100
H         23.28400        1.70400       14.65100
H         32.70800       -1.18400       14.88600
C         33.76100       -0.90500       14.88500
H         34.29700       -1.54400       14.18500
H         34.17800       -1.00000       15.88500
C         33.88200        0.52800       14.42600
O         34.43900        1.35900       15.13600
N         33.35300        0.80500       13.24100
H         32.88900        0.04100       12.74700
C         33.26800        2.14300       12.62300
H         34.11600        2.73600       12.96000
C         33.32000        2.03800       11.08100
H         32.31300        1.86000       10.70100
C         33.88700        3.29100       10.41000
H         33.23600        4.14400       10.59000
H         34.88100        3.50000       10.80200
H         33.95000        3.12500        9.33400
O         34.13800        0.97500       10.64200
H         33.60500        0.16000       10.79700
C         31.98300        2.89200       13.02400
O         31.81700        4.05500       12.66500
N         31.06400        2.22600       13.73500
H         31.28900        1.26100       13.94100
C         29.63700        2.57200       13.82300
H         29.18700        1.77900       14.41800
C         29.37600        3.87600       14.59200
H         29.88100        4.69700       14.08300
H         28.30800        4.08200       14.54900
S         29.88200        3.86000       16.33500
C         28.92700        2.46600       12.46000
O         28.21100        3.35700       12.00600
N         29.17400        1.33800       11.79800
H         29.77200        0.66500       12.27400
C         28.60700        0.91400       10.51500
H         28.44000        1.80500        9.90900
C         29.64300        0.03400        9.77900
H         29.21000       -0.27300        8.82600
H         30.51800        0.64200        9.54300
C         30.10500       -1.23400       10.52700
H         29.25600       -1.69500       11.03700
H         30.46900       -1.95200        9.78700
C         31.23800       -0.94400       11.52400
O         32.42400       -0.95800       11.12500
O         30.94500       -0.61500       12.69600
C         27.23000        0.22100       10.63700
O         26.69500       -0.27400        9.64800
N         26.62700        0.16600       11.82000
H         27.04200        0.61800       12.62400
H         25.73400       -0.29800       11.89900
