102
-2 1
H         37.82300       -4.05700        8.25300
C         37.06100       -3.33500        8.53500
H         36.09800       -3.82600        8.65600
H         36.96700       -2.56800        7.76500
C         37.44700       -2.67500        9.83700
O         38.48800       -2.99300       10.40200
N         36.60100       -1.76300       10.30700
H         35.77600       -1.58000        9.73700
C         36.82100       -0.94800       11.51000
H         37.47700       -1.49900       12.18400
C         37.53800        0.35400       11.10300
H         37.99500        0.77500       11.99900
H         38.35000        0.12200       10.41300
C         36.64200        1.41500       10.47700
C         36.28400        2.56400       11.21100
H         36.65400        2.70100       12.21700
C         35.43500        3.53300       10.64300
H         35.16200        4.41700       11.20400
C         34.93200        3.35200        9.34400
H         34.27800        4.09800        8.91200
C         35.27800        2.20300        8.61200
H         34.88600        2.04800        7.61600
C         36.13700        1.24300        9.17300
H         36.39300        0.36500        8.59700
C         35.54200       -0.61400       12.30400
O         35.63600       -0.33000       13.49700
N         34.36500       -0.61600       11.66700
H         34.36000       -0.89600       10.68900
C         33.09700       -0.16500       12.26700
H         33.02600       -0.54000       13.28900
C         33.12900        1.37100       12.30900
H         33.97700        1.66900       12.92600
H         33.31000        1.74800       11.30200
S         31.66100        2.20100       12.97400
C         31.85600       -0.66900       11.50200
O         30.84800       -1.02800       12.10400
N         31.96100       -0.75900       10.17700
H         32.86500       -0.54300        9.77300
C         31.02000       -1.42600        9.27300
H         30.01600       -1.06100        9.49100
C         31.38100       -1.03500        7.82200
H         30.50800       -1.25900        7.20800
H         31.52700        0.04600        7.77300
C         32.59000       -1.72800        7.14700
H         32.43700       -2.80800        7.15600
H         32.58600       -1.42700        6.09600
C         33.97600       -1.41200        7.74400
O         34.87300       -1.00100        6.98200
O         34.17900       -1.60700        8.96700
C         30.99400       -2.95900        9.43900
O         29.99600       -3.61000        9.14500
N         32.08000       -3.56700        9.90300
H         32.06600       -4.56500       10.01600
H         32.91800       -3.01900       10.04300
H         26.66800        9.72500       13.05100
C         25.74800        9.30500       12.64500
H         25.55600        9.76400       11.67700
H         24.91700        9.47900       13.32400
C         25.94400        7.82200       12.45000
O         25.19400        7.02600       13.01000
N         26.93300        7.43800       11.65000
H         27.49600        8.18900       11.24200
C         27.38700        6.05100       11.44600
H         27.37300        5.53500       12.40500
C         26.44000        5.28700       10.49900
H         26.25900        5.88300        9.60400
C         26.94100        3.90000       10.08700
H         27.81300        3.98800        9.43900
H         27.20100        3.31800       10.97100
H         26.15700        3.38200        9.53400
O         25.21700        5.04600       11.15800
H         25.07700        5.78500       11.77700
C         28.82500        6.02000       10.91400
O         29.07900        6.30400        9.74600
N         29.76200        5.59200       11.76800
H         29.46700        5.40900       12.71200
C         31.16800        5.29400       11.44800
H         31.64300        5.05200       12.39700
C         31.24500        4.02100       10.59000
H         30.75700        4.21500        9.63500
H         32.29300        3.80000       10.38700
S         30.49700        2.54500       11.33600
C         32.03000        6.44800       10.88300
O         33.18100        6.21800       10.51800
N         31.52800        7.68300       10.85700
H         30.57300        7.81700       11.18500
C         32.28500        8.90200       10.53800
H         33.12400        8.63200        9.89500
C         31.39000        9.87700        9.74400
H         32.04800       10.61700        9.28600
H         30.91200        9.33200        8.92800
C         30.30900       10.65500       10.52200
H         30.77800       11.23500       11.31800
H         29.86100       11.37700        9.83400
C         29.20000        9.77100       11.11300
O         29.46900        9.02700       12.08700
O         28.06300        9.82500       10.60100
C         32.88200        9.57400       11.78800
O         33.93100       10.20800       11.72700
N         32.24400        9.44000       12.94600
H         31.32300        9.01300       12.94200
H         32.62500        9.87900       13.76400
