92
0 1
H         37.95200       19.63000       18.10600
C         37.34700       20.51600       17.91700
H         37.07200       20.55000       16.86400
H         37.91400       21.40600       18.17900
C         36.09100       20.45700       18.75300
O         35.01800       20.78600       18.26100
N         36.21000       20.07000       20.02500
H         37.14300       19.90700       20.38700
C         35.05100       19.81100       20.89900
H         34.42100       19.07200       20.40200
C         35.51400       19.19700       22.23100
H         34.62700       18.89900       22.79300
H         36.06800       18.28200       22.01400
C         36.35900       20.08900       23.12700
C         37.74400       19.86600       23.24000
H         38.21600       19.07500       22.67300
C         38.52100       20.66400       24.09600
H         39.58200       20.48100       24.18900
C         37.92300       21.69900       24.83400
H         38.52500       22.30900       25.49200
C         36.54000       21.92500       24.72800
H         36.07400       22.71000       25.30600
C         35.75800       21.11200       23.88800
H         34.69000       21.27300       23.83600
C         34.15600       21.04200       21.13100
O         32.97700       20.89800       21.44300
N         34.68500       22.25200       20.92300
H         35.66600       22.29700       20.70300
C         33.92200       23.50300       20.95700
H         33.43100       23.58500       21.92800
C         34.90500       24.66800       20.80700
H         35.37900       24.59400       19.82800
H         34.34600       25.60500       20.83300
S         36.19800       24.74100       22.07600
C         32.82000       23.59300       19.87900
O         31.95000       24.45200       19.98500
N         32.83800       22.72700       18.85600
H         33.59800       22.05700       18.79900
C         31.75400       22.59000       17.87500
H         31.39200       23.58000       17.59500
H         32.15000       22.10500       16.98300
C         30.55000       21.76700       18.36000
O         29.57300       21.62900       17.63500
N         30.58000       21.19300       19.55700
H         29.77700       20.66500       19.85200
H         31.38900       21.29100       20.15500
H         42.80100       26.82100       19.93400
C         43.58700       26.07800       20.04700
H         44.48400       26.54400       20.45100
H         43.81600       25.63900       19.07600
C         43.12400       24.98600       20.98100
O         43.04900       23.82800       20.58900
N         42.77500       25.36100       22.21300
H         42.84300       26.33800       22.44600
C         42.39900       24.42800       23.29000
H         43.26200       23.79700       23.51100
C         42.06100       25.23200       24.55600
H         41.88300       24.53100       25.37300
H         42.92800       25.83200       24.83500
C         40.84900       26.14000       24.42600
C         39.55600       25.62900       24.65300
H         39.42200       24.59500       24.93800
C         38.43100       26.45800       24.50000
H         37.43900       26.06000       24.66800
C         38.59300       27.80200       24.12400
H         37.72700       28.43800       24.00600
C         39.88200       28.32000       23.91000
H         40.00500       29.35800       23.63300
C         41.00900       27.49200       24.06300
H         41.99600       27.90200       23.90900
C         41.24400       23.47600       22.92400
O         41.17500       22.37200       23.45600
N         40.38100       23.86200       21.97800
H         40.47500       24.79800       21.62100
C         39.30400       23.03400       21.43000
H         38.61900       22.77200       22.23700
C         38.54500       23.87500       20.39600
H         39.23100       24.13700       19.59000
H         37.74400       23.27100       19.96900
S         37.82300       25.40300       21.04900
C         39.78200       21.71700       20.78100
O         38.96700       20.82000       20.57300
N         41.07300       21.58500       20.45100
H         41.69800       22.36900       20.60900
C         41.67100       20.33200       19.97600
H         41.03000       19.89000       19.21200
H         42.63700       20.55600       19.52500
C         41.89900       19.27700       21.07000
O         42.21600       18.13600       20.76200
N         41.74600       19.60700       22.34700
H         41.90000       18.89700       23.04300
H         41.49300       20.55100       22.60700
