99
0 1
H         16.70100       49.91100       20.57000
C         15.81800       49.98200       19.93800
H         15.41000       48.98300       19.78400
H         16.07900       50.41300       18.97400
C         14.76000       50.84300       20.59800
O         13.65900       50.37600       20.82900
N         15.04000       52.10000       20.93900
H         14.27800       52.62200       21.34800
C         16.33400       52.80100       20.84700
H         16.86100       52.44300       19.96500
C         16.08400       54.29600       20.64100
H         17.03700       54.80900       20.50900
H         15.48400       54.44400       19.74200
O         15.40300       54.83500       21.75200
H         15.47000       55.80600       21.68100
C         17.26600       52.54900       22.04700
O         18.26100       53.25600       22.23200
N         16.96200       51.53900       22.86900
H         16.09800       51.04500       22.70500
C         17.89400       50.95500       23.83300
H         18.33700       51.73000       24.43800
C         17.13300       50.03100       24.78700
H         16.66400       49.24000       24.19800
H         17.84500       49.55600       25.46300
S         15.84800       50.83800       25.78900
C         19.04900       50.25100       23.11000
O         18.87500       49.17900       22.53700
N         20.22500       50.88100       23.14700
H         20.24800       51.77800       23.62000
C         21.46200       50.42600       22.49800
H         21.31300       49.42200       22.10000
C         21.79900       51.36800       21.32700
H         22.06800       52.34000       21.74300
H         22.68400       50.98000       20.82000
C         20.72200       51.57300       20.26900
C         20.00300       50.47900       19.74800
H         20.18500       49.48000       20.11800
C         19.05500       50.67300       18.72800
H         18.52100       49.82400       18.32300
C         18.81800       51.96200       18.22000
H         18.10100       52.10700       17.42400
C         19.52800       53.05900       18.73800
H         19.36100       54.04900       18.33800
C         20.48200       52.86300       19.75400
H         21.04900       53.70600       20.12000
C         22.65100       50.32800       23.47400
O         23.71900       49.85600       23.11200
N         22.50800       50.76800       24.71900
H         21.63600       51.17600       25.01500
H         23.29100       50.67600       25.34500
H         20.24900       58.40500       25.59700
C         20.46200       58.31600       26.66100
H         19.67000       58.79700       27.23400
H         21.41700       58.78700       26.88400
C         20.52800       56.85800       27.04300
O         19.86600       56.43900       27.98400
N         21.32600       56.08300       26.30600
H         21.76000       56.53600       25.51000
C         21.46400       54.60900       26.38600
H         22.22500       54.33600       25.65500
C         22.00000       54.12700       27.75600
H         21.26500       54.33600       28.53200
C         22.26500       52.61600       27.75800
H         21.34500       52.06600       27.56300
H         23.01200       52.36600       27.00500
H         22.63600       52.31200       28.73800
C         23.31500       54.82600       28.12900
H         23.15000       55.89700       28.24600
H         23.68500       54.43800       29.07800
H         24.06500       54.65900       27.35500
C         20.19400       53.86700       25.95100
O         20.26600       53.05700       25.02700
N         19.03900       54.19300       26.53500
H         19.10600       54.85200       27.30700
C         17.72800       54.11700       25.88800
H         17.75100       53.43300       25.05200
C         16.67700       53.60400       26.87400
H         16.75100       54.18800       27.79400
H         15.68400       53.77400       26.45700
S         16.82300       51.83900       27.28800
C         17.41200       55.49200       25.29500
O         16.93800       56.40200       25.97100
N         17.78900       55.66300       24.02900
H         18.10900       54.84800       23.51900
C         17.94700       56.96500       23.38600
H         18.34500       57.66500       24.12400
C         19.00200       56.81900       22.27200
H         18.61200       56.18900       21.47400
H         19.22000       57.80000       21.85200
C         20.30000       56.22300       22.79100
O         21.09100       56.87200       23.45400
N         20.53800       54.95100       22.56900
H         19.82500       54.35700       22.15700
H         21.37100       54.56700       22.97200
C         16.59500       57.53200       22.91300
O         16.22500       57.42600       21.74700
N         15.80600       58.08500       23.82300
H         16.07600       58.05300       24.79700
H         14.90900       58.44000       23.53800
