104
0 1
H         44.81500       37.59500       26.03400
C         45.74600       37.03000       26.02600
H         45.89700       36.59000       27.01100
H         46.57400       37.68900       25.77500
C         45.63900       35.93100       24.99800
O         44.62000       35.80400       24.33400
N         46.69100       35.12000       24.86900
H         47.50800       35.31500       25.42400
C         46.69800       33.93300       23.98600
H         46.22500       34.21500       23.04500
C         48.15300       33.52400       23.66700
H         48.66500       34.40700       23.28400
C         48.93400       33.02900       24.89300
H         48.50300       32.10500       25.27600
H         49.96900       32.83500       24.60900
H         48.93100       33.78300       25.67900
C         48.22900       32.45000       22.57700
H         47.68700       32.78600       21.69300
H         49.27000       32.28000       22.30200
H         47.80200       31.51000       22.93000
C         45.87300       32.76500       24.55400
O         45.32300       31.96500       23.79300
N         45.75700       32.69200       25.88500
H         46.19600       33.41400       26.43400
C         44.96900       31.71000       26.62600
H         44.13300       31.40200       26.01000
C         45.84400       30.49900       27.00400
H         46.57900       30.83700       27.73600
H         45.21600       29.76200       27.50100
S         46.76000       29.64900       25.68100
C         44.38300       32.36500       27.88100
O         45.12500       32.95200       28.66800
N         43.06400       32.28100       28.06000
H         42.51500       31.75900       27.38600
C         42.34800       33.05100       29.08300
H         42.89600       33.98100       29.24100
C         40.93400       33.43500       28.60200
H         40.26400       32.58800       28.75800
H         40.57800       34.25500       29.22700
C         40.81100       33.86100       27.12300
H         40.83300       32.96100       26.50900
H         39.84100       34.33100       26.96600
C         41.89900       34.81000       26.61800
O         42.52000       35.56000       27.35500
N         42.18200       34.77900       25.33800
H         42.94500       35.35400       24.99800
H         41.65900       34.17000       24.71300
C         42.30000       32.32500       30.43500
O         42.13400       31.10900       30.50500
N         42.39900       33.05800       31.53500
H         42.54000       34.05300       31.46700
H         42.36000       32.59100       32.42600
H         43.79800       28.34000       31.06300
C         44.34500       28.55400       30.14700
H         45.27000       27.98000       30.12600
H         44.56700       29.61900       30.09900
C         43.49400       28.16500       28.96200
O         43.87300       27.30300       28.18000
N         42.34500       28.81600       28.80800
H         42.11700       29.53800       29.48600
C         41.42400       28.59400       27.68100
H         41.35000       27.52100       27.50200
C         40.00600       29.11000       28.01200
H         40.03000       30.19400       28.13000
C         39.01300       28.75900       26.89600
H         38.95900       27.67700       26.76800
H         38.02300       29.13700       27.15100
H         39.31700       29.21400       25.95600
C         39.46600       28.50100       29.31400
H         39.47700       27.41300       29.25400
H         40.07500       28.82100       30.16100
H         38.44500       28.84100       29.48800
C         41.99900       29.24800       26.41900
O         41.81100       30.44400       26.19700
N         42.76200       28.49000       25.63000
H         42.96500       27.55200       25.94900
C         43.54300       28.99700       24.49500
H         44.03200       29.90800       24.80300
C         44.66800       28.01500       24.16900
H         44.23300       27.04100       23.93700
H         45.19900       28.36600       23.28400
S         45.88100       27.81500       25.50000
C         42.74100       29.36100       23.23500
O         41.78100       28.68500       22.86600
N         43.19800       30.41300       22.54700
H         43.92900       30.96500       22.98400
C         42.83800       30.75900       21.16100
H         42.30500       29.92200       20.70800
C         41.92000       31.99700       21.11500
H         42.40000       32.83500       21.62400
H         41.79700       32.27700       20.06800
C         40.51100       31.77100       21.68600
H         39.84100       32.52100       21.26600
H         40.14300       30.79000       21.38200
C         40.45800       31.91300       23.20000
O         40.71300       32.96300       23.76600
N         40.15500       30.86200       23.92000
H         40.12800       29.95800       23.47000
H         40.34200       30.94700       24.90800
C         44.07900       31.00700       20.28100
O         44.00700       30.89500       19.06500
N         45.23800       31.32000       20.85100
H         45.30400       31.44600       21.85100
H         46.03300       31.46300       20.25100
