104
0 1
H         41.85700       31.73000       20.44600
C         42.25300       31.12200       21.25700
H         42.17600       30.06700       21.00100
H         41.68900       31.31800       22.16800
C         43.70300       31.47700       21.48600
O         44.05600       31.90700       22.58000
N         44.52100       31.29200       20.44700
H         44.10800       30.95100       19.59400
C         45.97700       31.55800       20.40600
H         46.42500       31.12800       21.30200
C         46.65000       30.86200       19.20100
H         47.66800       31.23700       19.10200
C         46.74300       29.35200       19.45700
H         47.31500       29.17500       20.36900
H         45.75000       28.91700       19.56300
H         47.26200       28.87100       18.62800
C         45.92700       31.07400       17.86000
H         46.52900       30.64800       17.05700
H         44.95100       30.59100       17.86000
H         45.80600       32.13900       17.66500
C         46.30500       33.05700       20.47000
O         46.70700       33.69900       19.50100
N         46.10900       33.62500       21.65600
H         45.75600       33.01800       22.38500
C         46.34000       35.02800       21.99800
H         45.80100       35.65300       21.28500
C         45.70400       35.22400       23.38200
H         44.62600       35.09600       23.28700
H         46.05700       34.42200       24.01600
S         46.00300       36.76800       24.27900
C         47.82600       35.45200       21.91400
O         48.12100       36.64100       21.99300
N         48.76800       34.52600       21.68200
H         48.49300       33.55100       21.62600
C         50.15100       34.87300       21.31800
H         50.53000       35.58100       22.05700
C         51.06000       33.63000       21.33100
H         50.90500       33.05200       20.41800
H         52.09100       33.98600       21.30800
C         50.90900       32.70600       22.55100
H         51.89000       32.28600       22.77300
H         50.59100       33.27300       23.42600
C         49.95000       31.54000       22.31600
O         49.07200       31.55900       21.46400
N         50.08900       30.47100       23.06600
H         50.75100       30.48700       23.83600
H         49.41600       29.74200       22.93900
C         50.26600       35.55200       19.93600
O         51.29000       36.14900       19.62200
N         49.25900       35.45800       19.07400
H         48.42500       34.93900       19.31800
H         49.35000       35.91200       18.18200
H         42.98600       34.17100       25.50200
C         42.90800       33.48400       26.34300
H         42.11600       32.76100       26.15700
H         42.69000       34.04300       27.25100
C         44.21900       32.75700       26.51300
O         44.86200       32.86700       27.55700
N         44.63700       32.02500       25.47900
H         44.08400       32.00700       24.62900
C         45.93000       31.32200       25.45800
H         46.10900       30.95300       26.46500
C         45.92600       30.07700       24.54000
H         45.96400       30.38400       23.49600
C         47.14500       29.19100       24.83300
H         47.16900       28.35200       24.13800
H         48.06300       29.76400       24.72300
H         47.09500       28.81300       25.85500
C         44.67700       29.20500       24.73500
H         44.75500       28.30600       24.12500
H         44.57900       28.92300       25.78300
H         43.78600       29.74900       24.42200
C         47.05100       32.31600       25.12100
O         47.64300       32.28100       24.05000
N         47.27000       33.30700       25.98700
H         46.68900       33.33000       26.81600
C         48.23500       34.39700       25.78000
H         48.27200       34.63700       24.71800
C         47.74300       35.64700       26.52800
H         47.85200       35.46900       27.59800
H         48.39500       36.48200       26.26600
S         46.02300       36.15500       26.22400
C         49.67400       34.02600       26.19900
O         50.54600       34.88800       26.26100
N         49.91900       32.76700       26.57300
H         49.17400       32.08800       26.47100
C         51.14600       32.31700       27.23200
H         51.62400       33.18200       27.69400
C         50.81300       31.31800       28.36200
H         50.52700       30.35800       27.92900
H         51.72500       31.15400       28.93700
C         49.71000       31.79000       29.34000
H         49.75800       31.17800       30.24100
H         49.90400       32.82400       29.62700
C         48.28800       31.67300       28.78100
O         48.02000       30.92800       27.85500
N         47.33500       32.43900       29.26600
H         46.41300       32.35600       28.84600
H         47.50700       33.06100       30.03300
C         52.14200       31.71900       26.22400
O         51.77100       30.97800       25.31800
N         53.42800       31.99800       26.38100
H         54.08300       31.60700       25.72300
H         53.72900       32.62100       27.11200
