104
0 1
H         55.55500       52.08500       47.64000
C         56.01300       53.00500       48.00100
H         57.00000       53.12000       47.55500
H         56.09700       52.96800       49.08500
C         55.14300       54.17400       47.60400
O         54.11100       53.98800       46.97000
N         55.56600       55.38500       47.96900
H         56.43400       55.44900       48.47700
C         54.84700       56.64100       47.67600
H         53.78300       56.46000       47.83400
C         55.25200       57.77600       48.64700
H         56.29000       58.05700       48.46400
C         54.36200       59.01800       48.48500
H         54.66500       59.78700       49.19600
H         54.45900       59.43400       47.48300
H         53.31800       58.75800       48.66200
C         55.13100       57.33200       50.11400
H         55.36900       58.16700       50.77400
H         54.11400       56.99500       50.31900
H         55.82900       56.52500       50.33000
C         55.01200       57.02900       46.19800
O         55.72000       57.97000       45.84300
N         54.36000       56.27700       45.30900
H         53.86100       55.47200       45.67300
C         54.38500       56.48900       43.85600
H         55.42500       56.46200       43.53100
C         53.64500       55.31600       43.20100
H         54.08900       54.38100       43.54800
H         52.60700       55.33400       43.53600
S         53.64000       55.28900       41.38900
C         53.80600       57.85400       43.42000
O         53.99000       58.27800       42.28100
N         53.12200       58.56300       44.32200
H         52.99100       58.13900       45.23400
C         52.65300       59.94200       44.16600
H         52.11200       60.02900       43.22400
C         51.69200       60.28300       45.32400
H         52.23800       60.28500       46.26800
H         51.33000       61.29900       45.15800
C         50.45400       59.37000       45.44800
H         49.69700       59.90900       46.01900
H         50.04100       59.18200       44.45800
C         50.68800       58.03400       46.16000
O         51.77300       57.68900       46.60300
N         49.67700       57.20500       46.28200
H         49.86500       56.34200       46.76300
H         48.76500       57.44800       45.94000
C         53.79600       60.97800       44.12300
O         53.57600       62.11100       43.71700
N         55.01400       60.63800       44.53200
H         55.74200       61.33000       44.48400
H         55.20000       59.70700       44.88100
H         50.92800       56.80400       41.41900
C         50.45400       57.78100       41.33600
H         50.69900       58.39000       42.20100
H         49.37500       57.65800       41.25900
C         50.96000       58.45800       40.08500
O         50.19400       58.67900       39.15400
N         52.25200       58.77500       40.06800
H         52.79200       58.57700       40.90000
C         52.96100       59.38200       38.92400
H         52.33600       59.26900       38.03900
C         53.13100       60.89800       39.16800
H         52.16600       61.29200       39.49100
C         54.15700       61.21700       40.26300
H         55.15500       60.89900       39.96100
H         54.17000       62.29100       40.45100
H         53.88200       60.71600       41.18900
C         53.52000       61.66400       37.89900
H         52.81400       61.43600       37.10100
H         53.49200       62.73600       38.09600
H         54.52600       61.39200       37.57800
C         54.28500       58.67300       38.59000
O         54.80800       58.83600       37.49100
N         54.81700       57.83800       39.49200
H         54.34400       57.72900       40.37900
C         56.08700       57.12500       39.30900
H         56.86200       57.87300       39.14100
C         56.43000       56.37200       40.60400
H         57.49400       56.13300       40.55900
H         56.28100       57.03300       41.45800
S         55.55400       54.80200       40.88900
C         56.11600       56.17100       38.09700
O         57.19200       55.84800       37.60100
N         54.95000       55.74400       37.60200
H         54.10700       56.01400       38.09700
C         54.78900       54.95000       36.38000
H         55.55200       54.17100       36.39500
C         53.41200       54.24900       36.40500
H         53.43800       53.46500       35.64800
H         53.27600       53.75300       37.36800
C         52.18000       55.13100       36.10400
H         52.33900       55.68400       35.17900
H         51.33000       54.46900       35.93400
C         51.77400       56.10900       37.20700
O         52.25600       56.08900       38.32800
N         50.85900       57.01000       36.92800
H         50.44100       57.06100       36.01900
H         50.57700       57.62700       37.68600
C         55.00700       55.74500       35.07400
O         54.93500       55.18000       33.98800
N         55.23200       57.05200       35.12400
H         55.26600       57.53300       36.01300
H         55.38200       57.54600       34.26100
