104
0 1
H         58.03900       54.96900       43.95900
C         57.82900       55.12500       42.90200
H         58.60500       54.64900       42.30400
H         57.80200       56.19000       42.68000
C         56.49700       54.50300       42.56000
O         56.42800       53.61500       41.72200
N         55.42700       54.99000       43.18700
H         55.57600       55.72300       43.86100
C         54.04500       54.47600       43.04000
H         54.10700       53.38800       43.01200
C         53.18600       54.83200       44.27400
H         52.19400       54.39700       44.14800
C         53.77700       54.22600       45.55400
H         54.74300       54.67200       45.78700
H         53.09600       54.40000       46.38800
H         53.89800       53.15000       45.42600
C         53.02400       56.34600       44.47700
H         53.98700       56.81900       44.66500
H         52.56500       56.79300       43.59600
H         52.36900       56.52800       45.33000
C         53.34700       54.87900       41.72200
O         52.12100       54.91600       41.63900
N         54.10200       55.23100       40.67500
H         55.09900       55.08300       40.74400
C         53.55400       55.77700       39.42700
H         52.61500       56.26400       39.69500
C         54.44600       56.92000       38.90900
H         53.79600       57.59900       38.35600
H         54.83000       57.48100       39.76100
S         55.83200       56.54900       37.79800
C         53.14300       54.71000       38.38500
O         53.25100       54.93900       37.18100
N         52.69300       53.53000       38.82900
H         52.67000       53.37200       39.83300
C         52.15600       52.46300       37.96300
H         52.82800       52.31800       37.11600
C         52.05700       51.13100       38.73500
H         51.40100       51.25100       39.59800
H         51.59300       50.39700       38.07400
C         53.40900       50.54800       39.18300
H         53.25900       49.51500       39.49500
H         54.08600       50.54100       38.33000
C         54.04900       51.29700       40.34800
O         53.39200       51.93600       41.15300
N         55.35500       51.30100       40.45400
H         55.76100       51.92500       41.14100
H         55.92100       50.87900       39.72400
C         50.76700       52.80600       37.39100
O         50.39200       52.32200       36.33000
N         49.98800       53.65300       38.05300
H         49.08100       53.86500       37.67300
H         50.29400       54.03200       38.93500
H         51.38500       56.00300       34.19000
C         51.43600       54.92700       34.34000
H         50.60000       54.44300       33.83600
H         51.39200       54.70200       35.40100
C         52.73000       54.40700       33.76200
O         52.70700       53.68600       32.77100
N         53.85600       54.75900       34.38300
H         53.76000       55.26800       35.25300
C         55.20600       54.55800       33.81600
H         55.11400       53.87200       32.97400
C         55.71900       55.88900       33.22100
H         54.92700       56.29600       32.59100
C         56.04500       56.93700       34.29200
H         55.16500       57.13000       34.90500
H         56.86500       56.59500       34.92200
H         56.33800       57.87000       33.81100
C         56.95100       55.71400       32.32600
H         56.75300       54.95000       31.57300
H         57.17400       56.65300       31.82100
H         57.81900       55.41700       32.91600
C         56.21200       53.88300       34.76200
O         57.19200       53.32100       34.28500
N         55.96400       53.82300       36.07700
H         55.13000       54.27500       36.42700
C         56.83000       53.11700       37.04600
H         57.86800       53.33100       36.78700
C         56.59100       53.65900       38.47000
H         55.54200       53.54100       38.72900
H         57.15800       53.02900       39.15700
S         57.11900       55.36000       38.82300
C         56.68000       51.57400       36.98300
O         56.65100       50.90000       38.01400
N         56.49400       51.00700       35.79000
H         56.66400       51.57900       34.97100
C         56.13400       49.60100       35.59200
H         55.38200       49.34300       36.33700
C         55.51700       49.39400       34.19400
H         56.31600       49.45200       33.45300
H         55.09700       48.38900       34.14900
C         54.42200       50.40100       33.77800
H         54.86100       51.39200       33.67900
H         54.05600       50.11600       32.79200
C         53.21800       50.49700       34.71600
O         53.10300       49.83000       35.73100
N         52.27600       51.35900       34.41100
H         51.48800       51.44200       35.04500
H         52.36200       51.96000       33.60000
C         57.32200       48.65100       35.81500
O         58.46400       48.95900       35.49500
N         57.06600       47.45600       36.33100
H         56.12600       47.20700       36.58900
H         57.84000       46.82900       36.47400
