104
0 1
H         56.27200       64.49300       41.94000
C         55.66100       63.59500       41.86600
H         55.34000       63.45900       40.83500
H         54.79000       63.68300       42.51200
C         56.47900       62.39800       42.29200
O         56.66500       61.47700       41.50500
N         56.95400       62.42100       43.53800
H         56.70900       63.21000       44.11300
C         57.74300       61.33900       44.16200
H         58.63400       61.17900       43.55500
C         58.19400       61.74600       45.58300
H         57.31200       61.98800       46.17700
C         58.97500       60.64500       46.31300
H         59.83300       60.33000       45.71900
H         59.32600       61.01700       47.27600
H         58.32900       59.78800       46.51000
C         59.09700       62.98800       45.53200
H         58.56200       63.83500       45.10500
H         59.40900       63.26100       46.54100
H         59.98300       62.78300       44.92900
C         56.95600       60.02100       44.18300
O         55.73700       60.02700       44.35100
N         57.65100       58.89400       44.00000
H         58.64700       58.95200       43.86600
C         57.01200       57.60800       43.72900
H         56.43900       57.74600       42.81400
C         58.05800       56.51400       43.47400
H         58.53700       56.26500       44.42300
H         57.53400       55.62200       43.12600
S         59.36000       56.89700       42.27600
C         56.04100       57.14300       44.82700
O         56.35800       57.15100       46.01700
N         54.88200       56.64800       44.39900
H         54.73300       56.62800       43.39400
C         53.83100       56.07200       45.23800
H         53.73100       56.67400       46.14300
C         52.50200       56.13500       44.46700
H         52.63900       55.62200       43.51500
H         51.72700       55.61500       45.03300
C         52.03400       57.57900       44.20400
H         51.73900       58.03300       45.15000
H         52.85100       58.16900       43.78800
C         50.86900       57.66800       43.22100
O         50.53500       56.74400       42.49800
N         50.21000       58.80100       43.13000
H         50.46000       59.58900       43.69700
H         49.46600       58.82200       42.45500
C         54.20300       54.64200       45.67100
O         53.67800       53.65100       45.17100
N         55.16500       54.50800       46.57300
H         55.64400       55.33400       46.90900
H         55.43400       53.58300       46.86500
H         52.58500       59.96000       41.83800
C         53.56100       60.28600       41.48700
H         54.33700       59.91600       42.15400
H         53.59700       61.37200       41.45000
C         53.79700       59.73400       40.10400
O         52.96200       59.00000       39.59000
N         54.94400       60.06100       39.50900
H         55.60600       60.62300       40.03500
C         55.34100       59.59400       38.15700
H         54.44700       59.60300       37.53200
C         56.35900       60.55200       37.49800
H         56.49600       60.24100       36.46200
C         55.83400       61.99500       37.46700
H         54.84500       62.01400       37.00700
H         55.77400       62.40300       38.47500
H         56.50700       62.61400       36.87400
C         57.73800       60.54700       38.17300
H         57.65600       60.83800       39.21900
H         58.17900       59.55200       38.11300
H         58.40000       61.24300       37.66000
C         55.84800       58.14000       38.13000
O         56.39100       57.68200       37.12800
N         55.72500       57.43400       39.25200
H         55.21300       57.85900       40.00900
C         56.26200       56.10300       39.50600
H         56.06200       55.47200       38.63800
C         57.78700       56.21200       39.70000
H         58.16300       55.29300       40.15000
H         58.23400       56.29600       38.70800
S         58.36900       57.64200       40.66500
C         55.54900       55.47500       40.71600
O         55.09700       56.18000       41.62100
N         55.43500       54.14600       40.73900
H         55.83500       53.62300       39.97400
C         54.60800       53.38100       41.68200
H         54.32200       54.01100       42.52500
C         53.32000       52.89100       40.98100
H         53.57400       52.46300       40.01000
H         52.89400       52.08900       41.58500
C         52.20800       53.94500       40.80500
H         51.31700       53.44700       40.42300
H         51.95400       54.34900       41.78400
C         52.53100       55.09700       39.85300
O         53.24500       54.95500       38.87300
N         52.02200       56.27800       40.11900
H         51.41800       56.40300       40.92400
H         52.31100       57.06600       39.55400
C         55.40000       52.19200       42.25000
O         56.29800       51.66000       41.60700
N         55.07900       51.74700       43.45700
H         54.36300       52.21600       43.99900
H         55.58300       50.95800       43.82400
