104
0 1
H         52.16200       59.86900       52.41600
C         52.02800       60.24800       51.40400
H         52.88600       59.97400       50.79300
H         51.92100       61.33100       51.43000
C         50.78000       59.63700       50.81400
O         50.10800       58.85300       51.47100
N         50.47200       59.99600       49.56900
H         51.08900       60.63000       49.08100
C         49.31100       59.49700       48.81300
H         49.15500       58.45400       49.09000
C         48.03500       60.28300       49.19600
H         47.94600       60.26900       50.28300
C         48.06400       61.75100       48.74900
H         48.08400       61.82000       47.66000
H         47.17600       62.26300       49.11900
H         48.94500       62.24700       49.15500
C         46.76100       59.63600       48.63700
H         46.72900       58.58200       48.91300
H         45.88900       60.13000       49.06400
H         46.71700       59.73700       47.55200
C         49.60000       59.54400       47.30900
O         50.38500       60.37400       46.85100
N         48.97600       58.65600       46.53400
H         48.35200       57.99100       46.96000
C         49.08700       58.64400       45.07500
H         50.14300       58.59200       44.80700
C         48.38200       57.39400       44.52400
H         47.30500       57.56300       44.56100
H         48.65700       57.26900       43.47700
S         48.72400       55.84600       45.41600
C         48.48700       59.93400       44.48500
O         47.34400       60.28100       44.78600
N         49.24300       60.65800       43.65400
H         50.16400       60.31700       43.42100
C         48.79200       61.93300       43.08100
H         48.39000       62.52100       43.90800
C         49.98300       62.73500       42.50900
H         49.65400       63.76800       42.39200
H         50.78800       62.73900       43.24600
C         50.55900       62.28600       41.15100
H         49.79100       62.35100       40.38100
H         51.35800       62.97400       40.87200
C         51.13800       60.87700       41.17400
O         52.30800       60.66400       41.44700
N         50.33600       59.86800       40.92900
H         50.67100       58.93700       41.15300
H         49.34400       60.04000       40.79000
C         47.65100       61.74400       42.06200
O         47.70600       60.87700       41.19300
N         46.62600       62.58300       42.11300
H         45.87600       62.45400       41.45300
H         46.57100       63.27400       42.84200
H         53.03800       48.34800       40.57300
C         53.65900       49.03500       41.14600
H         54.70600       48.75500       41.04200
H         53.37500       49.00400       42.19600
C         53.47100       50.43700       40.61800
O         54.42800       51.06100       40.17300
N         52.23500       50.93300       40.67500
H         51.50800       50.36700       41.08600
C         51.85900       52.28300       40.22400
H         52.76600       52.86500       40.05900
C         51.09700       52.25000       38.88200
H         50.20000       51.63900       38.99400
C         50.67200       53.65500       38.43100
H         51.54300       54.30800       38.35800
H         50.18500       53.60000       37.45700
H         49.95900       54.08300       39.13700
C         51.95800       51.64800       37.76300
H         51.41000       51.66800       36.82100
H         52.88200       52.21700       37.65500
H         52.20200       50.61100       37.99200
C         51.05200       52.99400       41.30900
O         50.01900       52.50400       41.75700
N         51.54600       54.15800       41.71800
H         52.43000       54.43500       41.31000
C         50.93700       55.09300       42.66800
H         49.86700       55.17700       42.47500
C         51.15800       54.55600       44.08800
H         50.56800       53.64600       44.21100
H         52.20900       54.28200       44.19200
S         50.75600       55.68800       45.44300
C         51.58000       56.47500       42.47600
O         50.89400       57.48400       42.32200
N         52.90800       56.48600       42.34800
H         53.39300       55.61500       42.53500
C         53.66700       57.48000       41.59600
H         53.47900       58.45800       42.04100
C         55.17600       57.16500       41.72800
H         55.71600       58.08300       41.49100
H         55.39900       56.92900       42.77000
C         55.76700       56.05200       40.82500
H         55.65500       56.34500       39.78100
H         56.83800       55.99700       41.01900
C         55.20200       54.63500       40.99700
O         54.51200       54.30000       41.94600
N         55.48100       53.73900       40.07700
H         56.02800       53.97400       39.27300
H         55.12800       52.79300       40.21700
C         53.21800       57.51100       40.12200
O         52.95400       56.47300       39.52100
N         53.15800       58.68300       39.51000
H         53.27200       59.53200       40.04900
H         52.85500       58.70900       38.55100
