90
0 1
H         21.13100       -1.77200       -1.80600
C         21.58200       -0.93000       -2.32800
H         21.84600       -0.15400       -1.61200
H         20.87700       -0.53400       -3.05700
C         22.82400       -1.39500       -3.04700
O         22.85500       -1.42800       -4.27000
N         23.85100       -1.77200       -2.28700
H         23.73200       -1.70900       -1.28300
C         25.16600       -2.20600       -2.78600
H         25.46200       -1.53200       -3.59400
C         26.18800       -2.04400       -1.64400
H         25.81400       -2.51500       -0.73500
H         27.11800       -2.54300       -1.90700
C         26.52000       -0.58800       -1.38100
O         27.34100        0.01300       -2.05600
N         25.89400        0.03500       -0.41400
H         25.17000       -0.44600        0.10700
H         26.12400        1.00100       -0.27400
C         25.15800       -3.62200       -3.41300
O         25.97700       -4.47000       -3.06900
N         24.21800       -3.90100       -4.32100
H         23.59800       -3.13700       -4.57100
C         23.90700       -5.22000       -4.89700
H         23.79400       -5.91600       -4.06600
C         22.55100       -5.13200       -5.61200
H         22.62200       -4.38100       -6.39900
H         22.34600       -6.09000       -6.09200
S         21.11600       -4.74600       -4.57700
C         24.98900       -5.84000       -5.81900
O         24.67000       -6.52600       -6.79000
N         26.27100       -5.61600       -5.54000
H         26.48100       -5.07500       -4.70900
C         27.39800       -6.20700       -6.25700
H         27.24200       -6.04300       -7.32400
C         28.70200       -5.50100       -5.84200
H         29.06500       -5.97100       -4.92600
H         29.45500       -5.66900       -6.61300
C         28.58000       -4.00300       -5.59300
C         28.02700       -3.15400       -6.57400
H         27.72800       -3.55300       -7.53200
C         27.82200       -1.78800       -6.29100
H         27.37300       -1.13300       -7.02200
C         28.18400       -1.26500       -5.03300
O         27.92400        0.03400       -4.73400
H         27.85200        0.16600       -3.77400
C         28.77500       -2.10600       -4.06800
H         29.06600       -1.69900       -3.11100
C         28.96200       -3.47200       -4.34500
H         29.37900       -4.11800       -3.58400
C         27.48300       -7.72400       -6.00700
O         27.12200       -8.21900       -4.94100
N         27.99200       -8.48500       -6.96700
H         28.04800       -9.47700       -6.80500
H         28.27900       -8.07800       -7.84100
H         24.91900       -9.93300       -4.42300
C         24.04100       -9.31500       -4.25100
H         23.14300       -9.93000       -4.28800
H         23.98800       -8.54300       -5.01500
C         24.14500       -8.67200       -2.88900
O         23.25900       -8.83900       -2.06000
N         25.21800       -7.91700       -2.65800
H         25.91000       -7.86400       -3.40000
C         25.55200       -7.27800       -1.37200
H         25.50200       -8.03500       -0.59000
H         26.57800       -6.91500       -1.42500
C         24.66300       -6.09900       -0.93500
O         25.18300       -5.14100       -0.37200
N         23.35100       -6.14900       -1.19800
H         23.03000       -7.03500       -1.57500
C         22.36200       -5.05400       -1.22800
H         22.68600       -4.35400       -1.99600
C         21.02200       -5.65200       -1.69100
H         20.72600       -6.42300       -0.97800
H         20.25800       -4.87400       -1.66100
S         20.96100       -6.36700       -3.35300
C         22.14200       -4.19500        0.04900
O         21.10700       -3.54200        0.17300
N         23.07500       -4.14300        0.99900
H         23.94600       -4.62700        0.82400
C         23.02500       -3.22000        2.13100
H         22.09400       -3.39400        2.67200
C         24.19500       -3.54000        3.07000
H         24.15900       -2.88900        3.94300
H         24.13300       -4.57800        3.39900
H         25.14200       -3.38700        2.54800
C         23.04500       -1.74300        1.67700
O         23.67600       -1.37400        0.68500
N         22.38600       -0.86100        2.41600
H         22.38500        0.10300        2.12600
H         21.86300       -1.16600        3.22000
