90
0 1
H         25.51900      -10.70700        0.86200
C         24.90000      -10.47000       -0.00300
H         23.87200      -10.76500        0.19600
H         25.27800      -10.99700       -0.87700
C         24.95500       -8.98100       -0.25000
O         25.62000       -8.25900        0.48300
N         24.24800       -8.52200       -1.28400
H         23.71900       -9.17900       -1.83400
C         24.15900       -7.10400       -1.63600
H         24.80800       -6.54800       -0.96800
C         24.72400       -6.87400       -3.04900
H         25.70100       -7.35000       -3.13200
H         24.06000       -7.30400       -3.79800
C         24.90600       -5.39000       -3.32300
O         25.99200       -4.84700       -3.20300
N         23.83900       -4.70000       -3.64400
H         22.93600       -5.15500       -3.63700
H         23.91400       -3.69200       -3.73400
C         22.73600       -6.55100       -1.42400
O         21.95300       -6.45600       -2.36800
N         22.40900       -6.17200       -0.18700
H         23.09700       -6.28700        0.54400
C         21.16800       -5.46700        0.15000
H         20.32400       -6.01300       -0.27400
C         21.00300       -5.40800        1.67800
H         21.66900       -4.64900        2.08100
H         19.99100       -5.04700        1.86900
S         21.21300       -6.93400        2.64700
C         21.13200       -4.02300       -0.40000
O         20.05600       -3.47100       -0.62000
N         22.29800       -3.39500       -0.58800
H         23.15100       -3.89800       -0.37300
C         22.45000       -2.00400       -1.01700
H         21.73000       -1.39200       -0.47200
C         23.85700       -1.52800       -0.62300
H         24.01400       -1.73700        0.43700
H         24.59700       -2.10700       -1.17700
C         24.10600       -0.05000       -0.85200
C         23.71000        0.88400        0.12500
H         23.22600        0.54400        1.03000
C         23.94400        2.25800       -0.07500
H         23.64500        2.98100        0.66800
C         24.57200        2.70200       -1.25700
O         24.79400        4.02900       -1.44600
H         25.20700        4.20400       -2.29100
C         24.96400        1.76800       -2.24000
H         25.43900        2.10200       -3.14900
C         24.72900        0.39400       -2.03500
H         25.01900       -0.32300       -2.79100
C         22.16200       -1.84900       -2.52200
O         23.04100       -1.97700       -3.37200
N         20.90900       -1.61200       -2.88200
H         20.18400       -1.62000       -2.17900
H         20.69600       -1.52600       -3.86100
H         27.40000       -0.87000       -1.08300
C         27.58200       -1.86700       -1.48100
H         28.59000       -1.92900       -1.88600
H         26.85900       -2.08700       -2.26500
C         27.43500       -2.87700       -0.36800
O         27.40000       -2.51100        0.80300
N         27.32700       -4.15500       -0.72600
H         27.23300       -4.36700       -1.71400
C         27.05300       -5.22100        0.23900
H         27.02500       -6.18400       -0.26900
H         27.85000       -5.24400        0.98400
C         25.71200       -4.98600        0.94000
O         24.75400       -4.53600        0.31400
N         25.62900       -5.25000        2.24300
H         26.42900       -5.65600        2.70200
C         24.47300       -4.87200        3.06600
H         23.67300       -4.56500        2.40100
C         23.94100       -6.09400        3.82600
H         24.75700       -6.54300        4.39400
H         23.17400       -5.77600        4.53500
S         23.21900       -7.34600        2.72500
C         24.72900       -3.61400        3.91600
O         24.33900       -3.55200        5.08000
N         25.38300       -2.60200        3.33200
H         25.72300       -2.71300        2.38500
C         25.40100       -1.25100        3.89000
H         25.76500       -1.30600        4.91700
C         26.37600       -0.39400        3.07400
H         26.03400       -0.32200        2.04000
H         26.43600        0.60800        3.49900
H         27.36900       -0.84500        3.08900
C         23.98700       -0.62900        3.91500
O         23.12600       -0.94400        3.09800
N         23.73200        0.29200        4.83500
H         22.81000        0.69600        4.85500
H         24.43600        0.54800        5.50600
