101
0 1
H         33.44100       93.42500       58.37300
C         32.61100       93.11800       57.74000
H         31.67100       93.24900       58.27500
H         32.73300       92.07400       57.46100
C         32.59500       93.98300       56.50300
O         31.80400       94.91300       56.40800
N         33.45700       93.67100       55.53800
H         34.00400       92.82600       55.65400
C         33.61400       94.40000       54.27200
H         33.49400       95.46700       54.47000
C         35.03400       94.17200       53.70900
H         35.19100       93.10400       53.57900
H         35.06100       94.63100       52.72000
C         36.21100       94.76000       54.51500
H         35.97900       95.78600       54.79900
C         36.57100       93.95800       55.77100
H         37.50400       94.32900       56.19300
H         35.79900       94.08100       56.52700
H         36.68000       92.90200       55.52400
C         37.45600       94.77900       53.62400
H         37.27100       95.39500       52.74300
H         38.29800       95.20700       54.16900
H         37.70500       93.76600       53.30700
C         32.51100       94.00900       53.26400
O         32.79800       93.58300       52.14400
N         31.24900       94.06100       53.69600
H         31.09700       94.43500       54.62800
C         30.08400       93.53400       52.98100
H         30.27000       92.50300       52.70500
C         28.89200       93.52000       53.94300
H         28.64500       94.55300       54.19600
H         28.03000       93.09200       53.43100
S         29.15500       92.60900       55.49600
C         29.80100       94.31800       51.68800
O         29.20200       95.39100       51.72400
N         30.26100       93.78400       50.54700
H         30.75100       92.89800       50.62900
C         30.35600       94.50900       49.26200
H         30.14100       95.56300       49.45000
C         31.81000       94.43200       48.76000
H         31.94400       95.14500       47.94500
H         32.46800       94.73400       49.57600
C         32.19800       93.03000       48.25700
H         31.81600       92.27400       48.93700
H         31.72700       92.86700       47.28700
C         33.71300       92.83100       48.10000
H         33.89100       91.87900       47.59800
H         34.10700       93.62300       47.46000
C         34.48600       92.83500       49.42800
H         35.55100       92.73500       49.20700
H         34.33200       93.79000       49.93900
N         34.07500       91.73100       50.32300
H         34.69500       91.66300       51.12500
H         33.13100       91.85700       50.67900
H         34.11800       90.81900       49.86300
C         29.34200       94.09400       48.18700
O         29.21600       94.76800       47.17400
N         28.61800       93.00200       48.36800
H         27.99200       92.72100       47.63500
H         28.80500       92.40100       49.15200
H         31.72800       88.58300       46.56800
C         31.87000       89.55100       47.04300
H         31.60400       90.34700       46.34900
H         32.91000       89.65000       47.34900
C         30.97700       89.63100       48.25900
O         29.97100       90.33100       48.23900
N         31.35100       88.92200       49.31700
H         32.27100       88.48700       49.30300
C         30.65300       88.91100       50.60100
H         29.58900       89.10100       50.45700
H         30.76800       87.92200       51.04400
C         31.21400       89.95900       51.56500
O         31.47100       91.10200       51.18100
N         31.39100       89.57700       52.83200
H         31.21300       88.60800       53.04500
C         31.92700       90.42700       53.90500
H         31.82400       91.46400       53.61100
C         31.07200       90.22500       55.16200
H         31.15200       89.18000       55.46400
H         31.48100       90.83000       55.97000
S         29.30800       90.63300       54.99400
C         33.43500       90.23600       54.17900
O         33.98500       90.86400       55.08400
N         34.11400       89.37900       53.41500
H         33.60200       88.86900       52.69500
C         35.55900       89.13500       53.48200
H         35.80500       88.91800       54.52200
C         35.92600       87.88300       52.65300
H         36.95700       87.62000       52.89400
H         35.30300       87.05000       52.98300
C         35.82800       88.00600       51.11600
H         36.53100       88.77100       50.78000
H         36.15000       87.05900       50.67900
C         34.42000       88.33300       50.59500
O         33.42800       87.87200       51.20000
O         34.29600       89.13000       49.63700
C         36.40100       90.35400       53.05900
O         36.00600       91.15700       52.21600
N         37.59700       90.50600       53.61300
H         37.93100       89.84600       54.29500
H         38.15800       91.29200       53.32800
