101
0 1
H         26.38300       92.67000       51.03900
C         27.18700       93.14600       51.59700
H         26.81400       94.04100       52.09100
H         27.99300       93.41100       50.91800
C         27.71100       92.18900       52.64000
O         27.88000       92.56700       53.79400
N         27.97100       90.94400       52.24400
H         27.84000       90.72200       51.26000
C         28.40500       89.85200       53.12500
H         27.84800       89.92700       54.06000
C         28.06600       88.49400       52.46800
H         28.65100       88.40200       51.55100
H         28.38300       87.69500       53.14000
C         26.58100       88.27300       52.12200
H         26.22500       89.07000       51.47000
C         26.42100       86.94500       51.38100
H         27.02200       86.96500       50.47100
H         26.75100       86.12000       52.01100
H         25.37700       86.79900       51.10600
C         25.69700       88.23400       53.37100
H         26.05000       87.46500       54.05700
H         25.71500       89.20300       53.86900
H         24.66800       88.01700       53.08500
C         29.89500       89.96500       53.50400
O         30.68200       89.05700       53.23800
N         30.31300       91.09700       54.07200
H         29.62000       91.81700       54.24800
C         31.71900       91.39300       54.35300
H         32.26100       91.38200       53.41500
C         31.84600       92.80900       54.91800
H         31.19500       92.89700       55.79000
H         32.87200       92.95700       55.25600
S         31.45500       94.14800       53.76400
C         32.38700       90.37700       55.29700
O         31.99500       90.24700       56.45700
N         33.46200       89.72000       54.83600
H         33.71000       89.86100       53.86100
C         34.36400       88.91100       55.68600
H         33.76000       88.36000       56.40900
C         35.15600       87.87900       54.85000
H         35.47600       88.32300       53.90600
H         36.06300       87.61400       55.39600
C         34.41400       86.54800       54.60700
H         35.10300       85.85900       54.11500
H         34.15800       86.11600       55.57500
C         33.13500       86.63100       53.76400
H         32.67700       85.64200       53.71100
H         32.42800       87.30700       54.24500
C         33.45200       87.11100       52.34700
H         34.08600       87.99800       52.41100
H         34.01700       86.34000       51.81500
N         32.22600       87.46200       51.60400
H         31.62900       88.08100       52.14100
H         32.42500       87.93500       50.72400
H         31.67800       86.66600       51.27900
C         35.27600       89.82400       56.52500
O         36.47000       89.94700       56.28600
N         34.71200       90.51400       57.50200
H         35.28800       91.12600       58.05300
H         33.71300       90.44300       57.64000
H         33.77800       86.22800       49.12900
C         34.85900       86.35400       49.05900
H         35.14600       86.42400       48.01200
H         35.35900       85.50200       49.51700
C         35.27300       87.61900       49.77200
O         36.06900       87.56600       50.70000
N         34.69400       88.74600       49.36600
H         33.91100       88.64300       48.72600
C         34.92900       90.07500       49.94000
H         35.76600       90.04300       50.64000
H         35.18600       90.77000       49.14200
C         33.70000       90.59000       50.69100
O         33.44600       90.17300       51.81900
N         32.94000       91.47800       50.04300
H         33.23500       91.73900       49.11600
C         31.66100       92.04600       50.49900
H         31.33800       91.53300       51.40400
C         31.84400       93.53800       50.82400
H         32.28000       94.02600       49.95200
H         30.86000       93.98500       50.97400
S         32.84000       93.97600       52.27300
C         30.54300       91.82400       49.45300
O         29.74000       92.71400       49.18400
N         30.53400       90.66900       48.78900
H         31.21400       89.95500       49.03800
C         29.54800       90.30900       47.76500
H         29.48500       91.14600       47.06900
C         30.04800       89.09000       46.96000
H         29.42400       89.01800       46.06800
H         31.06400       89.28200       46.61300
C         30.00000       87.71500       47.65700
H         28.99200       87.54500       48.03900
H         30.18500       86.95600       46.89400
C         31.02100       87.50400       48.78700
O         30.89000       86.51400       49.53800
O         31.95900       88.32000       48.97500
C         28.12600       90.10500       48.33000
O         27.91200       89.97500       49.53100
N         27.11600       90.07400       47.47100
H         27.27900       90.17400       46.48400
H         26.18800       89.93700       47.83900
