101
0 1
H         31.77800       88.14100       54.47200
C         31.74400       88.57800       55.46800
H         31.43900       87.81900       56.18600
H         31.03900       89.40700       55.48300
C         33.11600       89.08700       55.83500
O         33.30400       90.28600       56.01200
N         34.08300       88.17900       55.94400
H         33.83400       87.21000       55.76300
C         35.47100       88.44500       56.34800
H         35.45300       89.15100       57.17800
C         36.11600       87.12900       56.84200
H         36.12800       86.42300       56.00900
H         37.15200       87.32800       57.11900
C         35.42200       86.45400       58.04100
H         34.37600       86.25900       57.80900
C         36.10300       85.11700       58.33700
H         35.59300       84.61500       59.15700
H         36.05400       84.48200       57.45200
H         37.14900       85.27600       58.60000
C         35.48900       87.31300       59.30500
H         34.92400       88.23300       59.16000
H         35.04500       86.77100       60.14000
H         36.52500       87.55300       59.54300
C         36.29700       89.11900       55.23200
O         37.35600       88.62100       54.84800
N         35.80400       90.22700       54.67300
H         34.92300       90.57600       55.03800
C         36.39700       90.91400       53.52400
H         36.45400       90.21000       52.69900
C         35.48000       92.05200       53.07100
H         35.24700       92.68300       53.93000
H         36.02200       92.66500       52.35000
S         33.93300       91.53500       52.28400
C         37.82300       91.42600       53.78800
O         38.02400       92.48300       54.38700
N         38.82000       90.69900       53.27400
H         38.55100       89.83800       52.80700
C         40.25900       91.01400       53.37400
H         40.45100       91.44800       54.35800
C         41.06500       89.70600       53.26600
H         40.72200       89.15800       52.38800
H         42.12500       89.93100       53.13100
C         40.92300       88.85700       54.54400
H         41.56800       89.28500       55.31300
H         39.90300       88.90400       54.92000
C         41.30700       87.38400       54.34500
H         42.32300       87.33400       53.95100
H         41.29400       86.88100       55.31300
C         40.36700       86.64100       53.38500
H         40.37700       87.14100       52.41200
H         40.75000       85.62800       53.23500
N         38.97800       86.56500       53.89200
H         38.35600       86.10200       53.23100
H         38.87200       85.93700       54.69100
H         38.56100       87.46500       54.11300
C         40.69300       92.09000       52.36300
O         41.58300       91.88900       51.54800
N         40.04100       93.24100       52.37900
H         40.30500       93.95300       51.72000
H         39.31000       93.38100       53.06400
H         39.58100       83.69300       52.21000
C         39.97400       83.73000       51.19500
H         39.46500       82.98700       50.58500
H         41.04400       83.52300       51.20400
C         39.73700       85.10100       50.60600
O         40.68100       85.76900       50.21000
N         38.48100       85.53600       50.59900
H         37.80700       84.97400       51.11600
C         38.03400       86.83000       50.07400
H         38.89100       87.47500       49.87800
H         37.50600       86.67500       49.13300
C         37.11500       87.54900       51.06100
O         37.60200       88.28300       51.91700
N         35.80500       87.30400       50.94300
H         35.52800       86.66900       50.21200
C         34.72400       87.80000       51.81200
H         35.15500       88.32200       52.66500
C         33.84500       88.79100       51.02600
H         33.56000       88.32200       50.08400
H         32.92200       88.95600       51.58400
S         34.51500       90.43400       50.66400
C         33.88100       86.63800       52.39200
O         32.65700       86.71600       52.46600
N         34.51200       85.51200       52.72300
H         35.52700       85.48500       52.66300
C         33.84800       84.31400       53.25000
H         33.01600       84.08600       52.58300
C         34.81100       83.10900       53.20000
H         34.21500       82.21200       53.37400
H         35.22100       83.02000       52.19300
C         35.96600       83.09300       54.22300
H         35.55300       83.19700       55.22800
H         36.43800       82.11000       54.17000
C         37.05600       84.15400       53.99900
O         37.15300       84.75000       52.89600
O         37.84900       84.41400       54.92900
C         33.24200       84.51600       54.65400
O         33.60200       85.42300       55.39500
N         32.30900       83.66300       55.05600
H         32.00800       82.91200       54.45800
H         31.91700       83.79200       55.97500
