99
0 1
H         20.51200      -26.35000       83.65500
C         20.17600      -25.62500       84.39600
H         20.24800      -24.62200       83.97900
H         20.79500      -25.70200       85.28700
C         18.73700      -25.91600       84.74900
O         18.14500      -26.83400       84.19800
N         18.18100      -25.12800       85.67000
H         18.77300      -24.42300       86.08900
C         16.81600      -25.22600       86.23100
H         16.73600      -24.42300       86.96300
C         15.72600      -24.93400       85.17200
H         15.77200      -25.68500       84.38300
C         14.31600      -24.97000       85.77300
H         14.24500      -24.28600       86.61900
H         13.58400      -24.68100       85.01800
H         14.06900      -25.97900       86.09500
C         15.92400      -23.55000       84.53800
H         16.87700      -23.50900       84.01100
H         15.13200      -23.35900       83.81300
H         15.90000      -22.77600       85.30600
C         16.55300      -26.51300       87.02700
O         16.24800      -26.42400       88.21700
N         16.70000      -27.69300       86.41800
H         17.04100      -27.67500       85.46100
C         16.50000      -29.01100       87.04300
H         16.47600      -29.74400       86.23700
C         17.70600      -29.35800       87.92700
H         17.74900      -28.64400       88.74700
H         17.55400      -30.34500       88.36700
S         19.30000      -29.36300       87.06500
C         15.14700      -29.15000       87.77700
O         15.07400      -29.73500       88.85500
N         14.08700      -28.56900       87.20700
H         14.20100      -28.15800       86.29300
C         12.75300      -28.45100       87.80300
H         12.56900      -29.32800       88.42500
C         12.67000      -27.17000       88.66400
H         13.39500      -26.43500       88.31500
H         11.68200      -26.71700       88.56900
C         12.91900      -27.44600       90.15200
H         13.89900      -27.90500       90.27400
H         12.92700      -26.49900       90.69000
C         11.86000      -28.34700       90.78600
O         10.84000      -28.68800       90.20200
N         12.06500      -28.76500       92.01200
H         11.37500      -29.36700       92.41600
H         12.93400      -28.51000       92.47400
C         11.66000      -28.43700       86.72700
O         11.91900      -28.14600       85.56300
N         10.42400      -28.72800       87.11200
H          9.68900      -28.71800       86.42600
H         10.24000      -28.92000       88.08900
H         16.48600      -30.07100       94.02300
C         15.90500      -29.21800       94.37000
H         16.41300      -28.74300       95.20800
H         14.91700      -29.55200       94.68400
C         15.76000      -28.22300       93.24300
O         14.64600      -27.92900       92.82900
N         16.88700      -27.70300       92.76600
H         17.75800      -27.99500       93.18700
C         17.01100      -26.77800       91.63600
H         16.38500      -27.12300       90.81000
C         16.54800      -25.37300       92.08800
H         15.46200      -25.35900       92.17100
H         16.96800      -25.15800       93.07100
C         16.98500      -24.25200       91.15900
O         17.85700      -23.46100       91.47100
N         16.48300      -24.19400       89.95100
H         15.88200      -24.92600       89.60100
H         16.91000      -23.52000       89.33900
C         18.47800      -26.75400       91.16100
O         19.38300      -26.97000       91.96400
N         18.71400      -26.42800       89.88800
H         17.91400      -26.27400       89.28600
C         20.01700      -25.97600       89.39700
H         20.77200      -26.15500       90.16100
C         20.41900      -26.78800       88.16200
H         19.67000      -26.63200       87.38800
H         21.37200      -26.41000       87.79000
S         20.59300      -28.57100       88.42300
C         19.95000      -24.46700       89.07000
O         19.07100      -24.07400       88.29500
N         20.86200      -23.61500       89.58100
C         20.81600      -22.18100       89.32100
H         19.84300      -21.76500       89.58900
H         21.02300      -21.99800       88.26600
C         21.91300      -21.55600       90.18000
H         21.51700      -21.31400       91.16800
H         22.34200      -20.67200       89.70900
C         22.92800      -22.69200       90.29200
H         23.58000      -22.56900       91.15900
H         23.52300      -22.73900       89.37900
C         22.04300      -23.94000       90.39100
H         22.58000      -24.78200       89.95300
C         21.75800      -24.28200       91.86700
O         22.65100      -24.75300       92.55800
N         20.55700      -24.06400       92.38600
H         19.80400      -23.67600       91.83400
H         20.40000      -24.34300       93.34000
