99
0 1
H         20.94100      -27.73600       82.82800
C         21.72400      -27.35400       83.48200
H         22.55500      -26.98600       82.88400
H         22.07000      -28.15000       84.14000
C         21.16900      -26.22500       84.31600
O         21.16800      -26.31000       85.54100
N         20.68400      -25.17900       83.65000
H         20.67500      -25.22400       82.64100
C         20.03900      -23.99900       84.25300
H         19.88700      -24.16900       85.31500
C         20.92200      -22.74200       84.10900
H         21.18800      -22.61300       83.05900
C         20.22500      -21.46200       84.58700
H         19.92600      -21.55800       85.63000
H         20.90300      -20.61400       84.49400
H         19.34600      -21.25200       83.97700
C         22.21400      -22.89200       84.92400
H         22.82900      -21.99900       84.80800
H         21.97600      -23.02600       85.98000
H         22.78700      -23.74900       84.57100
C         18.65900      -23.80500       83.62400
O         18.53400      -23.81300       82.40300
N         17.63600      -23.65000       84.46600
H         17.84700      -23.62200       85.45800
C         16.22500      -23.56900       84.07600
H         16.15200      -23.49400       82.99000
C         15.51700      -24.86400       84.50600
H         15.75700      -25.07700       85.54700
H         14.44400      -24.68000       84.45900
S         15.81400      -26.33900       83.47900
C         15.50900      -22.32400       84.64200
O         14.38400      -22.03000       84.23700
N         16.13800      -21.57500       85.55600
H         17.05000      -21.87600       85.88300
C         15.65300      -20.29000       86.07400
H         14.92100      -19.88100       85.37500
C         14.96300      -20.47000       87.44000
H         15.62900      -20.98500       88.13400
H         14.77000      -19.47700       87.84900
C         13.60800      -21.19600       87.36700
H         12.99800      -20.86600       88.20800
H         13.08400      -20.90900       86.45500
C         13.70600      -22.71600       87.46600
O         14.27000      -23.27300       88.39200
N         13.13200      -23.44200       86.53500
H         12.78200      -23.00200       85.70000
H         13.15600      -24.45300       86.64200
C         16.79500      -19.26300       86.16400
O         17.96600      -19.61000       86.26000
N         16.47800      -17.97600       86.14600
H         15.51700      -17.68700       86.06700
H         17.22700      -17.30500       86.20500
H         19.36700      -21.32600       89.59000
C         18.44500      -21.68400       89.13600
H         18.03500      -20.90500       88.49800
H         17.72500      -21.94400       89.91000
C         18.73100      -22.90800       88.30200
O         18.28500      -23.00700       87.16000
N         19.49000      -23.84400       88.86900
H         19.81900      -23.69700       89.81000
C         19.78500      -25.12400       88.22600
H         20.16600      -24.90300       87.23400
C         20.88500      -25.86800       88.99500
H         20.62400      -25.93500       90.05200
H         20.98200      -26.88000       88.60200
C         22.22400      -25.17700       88.85000
O         22.71600      -24.52700       89.75200
N         22.83300      -25.26200       87.69100
H         22.39300      -25.75600       86.92200
H         23.71300      -24.79000       87.61100
C         18.52900      -25.98700       88.04000
O         17.62700      -25.98300       88.87700
N         18.47500      -26.73400       86.93600
H         19.27500      -26.73800       86.31700
C         17.30700      -27.54000       86.57700
H         16.47000      -26.85900       86.48100
C         17.53700      -28.18200       85.20900
H         18.44200      -28.79000       85.26100
H         16.70300      -28.84500       84.97700
S         17.71100      -26.99800       83.85100
C         16.97100      -28.60800       87.64300
O         17.89500      -29.24900       88.14700
N         15.67900      -28.86000       87.95600
C         15.29500      -29.94800       88.84400
H         15.15500      -29.56000       89.85400
H         16.03300      -30.75100       88.85300
C         13.97100      -30.46500       88.29400
H         13.38000      -30.96700       89.06100
H         14.15400      -31.12800       87.44700
C         13.30900      -29.17700       87.81500
H         12.83600      -28.68200       88.66600
H         12.57200      -29.36900       87.03500
C         14.47700      -28.32700       87.29100
H         14.57200      -28.50200       86.21900
C         14.16400      -26.83400       87.50300
O         13.37800      -26.26900       86.75100
N         14.76700      -26.15900       88.46900
H         14.57400      -25.16800       88.56800
H         15.48900      -26.58400       89.03300
