99
0 1
H         14.50100      -32.46400       90.50200
C         14.87900      -31.81800       91.29200
H         15.75000      -32.27400       91.76100
H         14.10900      -31.66000       92.04500
C         15.27700      -30.48500       90.70700
O         14.69800      -29.46000       91.06300
N         16.25200      -30.51900       89.79400
H         16.70900      -31.41200       89.66800
C         16.86700      -29.39500       89.04700
H         17.62100      -29.84000       88.39700
C         15.85400      -28.69000       88.11500
H         15.06800      -28.23300       88.71600
C         16.51200      -27.58200       87.28100
H         16.89100      -26.79200       87.92900
H         17.33700      -27.99200       86.69700
H         15.77900      -27.14100       86.60600
C         15.20400      -29.68000       87.13700
H         14.51800      -29.15100       86.47700
H         15.97100      -30.17300       86.53900
H         14.63500      -30.43000       87.68500
C         17.64100      -28.40500       89.92500
O         18.78600      -28.07700       89.62300
N         17.05600      -27.97200       91.03900
H         16.12500      -28.33000       91.22300
C         17.67100      -27.13900       92.07400
H         18.51800      -26.61200       91.63200
C         16.63200      -26.08500       92.48800
H         16.05800      -25.82500       91.59800
H         15.93600      -26.53300       93.19700
S         17.24500      -24.50500       93.14900
C         18.22800      -28.01300       93.22300
O         18.05400      -27.70900       94.40200
N         18.83100      -29.15500       92.87400
H         18.94200      -29.33300       91.88600
C         19.42700      -30.12300       93.80400
H         18.84900      -30.09400       94.72500
C         19.31100      -31.56700       93.26400
H         19.52800      -32.24400       94.09100
H         18.28100      -31.75300       92.96200
C         20.23500      -31.95900       92.09500
H         21.27900      -31.83800       92.38400
H         20.07800      -33.01300       91.86700
C         19.95500      -31.15700       90.83200
O         19.08500      -31.48500       90.04100
N         20.62100      -30.03900       90.64300
H         21.26800      -29.71300       91.35500
H         20.31400      -29.43800       89.88900
C         20.87500      -29.75300       94.15500
O         21.64300      -29.31700       93.29900
N         21.28700      -29.97700       95.39400
H         20.64000      -30.35900       96.07400
H         22.23500      -29.74800       95.63700
H         17.92500      -32.37600       99.57600
C         18.72300      -31.68100       99.32000
H         19.65600      -32.22900       99.19000
H         18.84000      -30.94300      100.11100
C         18.37800      -30.98000       98.02800
O         19.12300      -31.08100       97.05900
N         17.25800      -30.26100       98.02500
H         16.72900      -30.18900       98.88200
C         16.74500      -29.50400       96.88000
H         17.57800      -29.25500       96.22400
C         15.73200      -30.37700       96.11300
H         16.09100      -31.40600       96.09500
H         14.76900      -30.36500       96.62300
C         15.54400      -29.96200       94.66400
O         16.18900      -30.48500       93.77700
N         14.65400      -29.05200       94.34400
H         14.10900      -28.55900       95.04500
H         14.50700      -28.91300       93.35600
C         16.09800      -28.19500       97.35300
O         15.54500      -28.14100       98.45300
N         16.11000      -27.16100       96.51500
H         16.64300      -27.23700       95.65300
C         15.34000      -25.93900       96.75500
H         15.67200      -25.51900       97.70400
C         15.62000      -24.92500       95.63900
H         15.05900      -25.23900       94.75900
H         15.23800      -23.94600       95.92800
S         17.36100      -24.76200       95.16300
C         13.82400      -26.24400       96.81800
O         13.36000      -27.14800       96.11200
N         13.03200      -25.49300       97.60700
C         13.45200      -24.42500       98.50400
H         14.15600      -23.74600       98.02200
H         13.89900      -24.86100       99.39900
C         12.17700      -23.66800       98.87800
H         11.99200      -22.87800       98.14900
H         12.23400      -23.25400       99.88600
C         11.09400      -24.74100       98.76400
H         10.10900      -24.30600       98.58800
H         11.08600      -25.34700       99.67200
C         11.57400      -25.59500       97.58600
H         11.27300      -26.63200       97.74200
C         10.99900      -25.10200       96.24700
O         11.52200      -24.18500       95.62300
N          9.89100      -25.67600       95.80000
H          9.51500      -25.35500       94.92300
H          9.47000      -26.43600       96.30800
