117
1 1
H        -15.27200       69.07100        6.24300
C        -15.50900       70.02700        6.70700
H        -15.25000       69.99100        7.76300
H        -16.57400       70.22700        6.59400
C        -14.71600       71.11800        6.02700
O        -13.94500       70.83200        5.11700
N        -14.91600       72.36800        6.47200
H        -15.61800       72.44500        7.19400
C        -14.22000       73.62900        6.09300
H        -14.77100       74.42800        6.58600
C        -12.79500       73.60600        6.70000
H        -12.87900       73.46100        7.77900
H        -12.25800       72.74600        6.29500
C        -11.92800       74.85500        6.44900
H        -10.96500       74.71100        6.94200
H        -11.72600       74.93100        5.38100
C        -12.54900       76.16500        6.97000
H        -13.60300       76.23100        6.70700
H        -12.47400       76.17800        8.05900
C        -11.84700       77.40600        6.40600
H        -12.22300       78.28500        6.93800
H        -10.77200       77.33300        6.59300
N        -12.10400       77.57400        4.95600
H        -13.09700       77.57200        4.72300
H        -11.74100       78.46500        4.62400
H        -11.66200       76.86100        4.39100
C        -14.23300       74.03100        4.60000
O        -14.00900       75.19600        4.27900
N        -14.52000       73.09800        3.70700
H        -14.66100       72.17200        4.08800
C        -14.65800       73.24800        2.26100
H        -15.09100       74.22300        2.03600
C        -13.26600       73.16500        1.62500
H        -12.63900       73.95200        2.04200
H        -12.81300       72.20900        1.89400
S        -13.22900       73.30500       -0.17900
C        -15.60700       72.16200        1.72400
O        -16.52300       72.45900        0.95900
N        -15.47600       70.93200        2.23800
H        -14.70000       70.75200        2.86100
C        -16.56700       69.94600        2.24300
H        -16.96000       69.85000        1.23100
C        -16.05000       68.56500        2.70100
H        -15.61000       68.66300        3.69400
C        -17.16100       67.50900        2.77100
H        -16.73300       66.54100        3.03700
H        -17.88700       67.77000        3.54000
H        -17.66100       67.42100        1.80600
C        -14.97100       68.04000        1.74400
H        -15.37300       67.95200        0.73400
H        -14.11300       68.71200        1.73100
H        -14.62500       67.06000        2.07600
C        -17.69500       70.45400        3.15400
O        -17.44000       71.03800        4.20500
N        -18.94900       70.25200        2.77700
H        -19.15100       69.78600        1.90800
H        -19.68800       70.59300        3.37100
H        -14.61000       81.43700       -1.71700
C        -15.48100       80.92500       -1.30800
H        -15.73700       80.07600       -1.93900
H        -16.32100       81.61700       -1.26600
C        -15.16400       80.44200        0.08600
O        -14.06300       80.65300        0.57900
N        -16.11400       79.74300        0.70800
H        -16.95300       79.52100        0.18700
C        -16.02800       79.21500        2.08300
H        -15.96600       80.05100        2.78000
C        -17.31100       78.41800        2.37100
H        -17.30700       78.10900        3.41700
H        -18.17900       79.06100        2.21600
C        -17.45300       77.19400        1.49800
N        -17.59700       77.21300        0.10900
C        -17.60900       75.92900       -0.27800
H        -17.69800       75.59400       -1.30400
N        -17.46500       75.11900        0.78400
H        -17.38400       74.10300        0.73800
C        -17.36100       75.89900        1.91500
H        -17.21000       75.56000        2.93000
C        -14.80200       78.32300        2.33300
O        -14.32500       78.23400        3.46500
N        -14.26400       77.69700        1.28300
H        -14.76500       77.76000        0.40900
C        -13.02800       76.91700        1.31500
H        -13.14900       76.10500        2.03000
C        -12.81100       76.31700       -0.08000
H        -12.79400       77.12500       -0.81300
H        -11.83900       75.82100       -0.11000
S        -14.07300       75.11800       -0.57900
C        -11.79000       77.73100        1.73700
O        -10.89900       77.16900        2.37600
N        -11.73400       79.03300        1.43300
H        -12.55300       79.46600        1.01400
C        -10.55600       79.89400        1.61800
H         -9.71400       79.41800        1.11500
C        -10.81800       81.23600        0.91700
H        -11.08900       81.04200       -0.12200
H        -11.67300       81.71700        1.39600
C         -9.66900       82.19700        0.91800
C         -9.64700       83.39700        1.54100
H        -10.47200       83.81700        2.10600
N         -8.41900       84.00000        1.34600
H         -8.18300       84.91500        1.70500
C         -7.58200       83.21300        0.58600
C         -6.26300       83.37400        0.13800
H         -5.70600       84.26500        0.38400
C         -5.67900       82.36100       -0.64200
H         -4.66400       82.47000       -1.00100
C         -6.41900       81.20900       -0.96300
H         -5.96700       80.43700       -1.57200
C         -7.74400       81.05800       -0.50700
H         -8.30200       80.17300       -0.77600
C         -8.35900       82.05500        0.28100
C        -10.13700       80.08900        3.09000
O        -10.91300       79.88300        4.02100
N         -8.89200       80.47500        3.33700
H         -8.61000       80.62200        4.29100
H         -8.27000       80.68800        2.57200
