117
1 1
H         -8.53600       80.61200       -3.51300
C         -8.37200       79.74000       -2.88000
H         -7.43200       79.85700       -2.34400
H         -8.33600       78.84700       -3.50100
C         -9.51000       79.62600       -1.89400
O        -10.42100       80.44700       -1.89700
N         -9.46400       78.61300       -1.02300
H         -8.67800       77.98300       -1.07900
C        -10.51300       78.34400       -0.01900
H        -11.45900       78.62700       -0.47400
C        -10.62400       76.83200        0.27500
H        -11.60300       76.67500        0.71300
H        -10.61900       76.27700       -0.66400
C         -9.54500       76.24200        1.21000
H         -8.70100       75.91700        0.60100
H         -9.15900       76.99900        1.88800
C        -10.03500       75.05000        2.05800
H        -10.20200       74.20400        1.38900
H         -9.22800       74.77000        2.73700
C        -11.32100       75.25000        2.89100
H        -12.17900       75.33600        2.21900
H        -11.47400       74.35400        3.49800
N        -11.28700       76.43300        3.78500
H        -12.04500       76.39300        4.46200
H        -10.40400       76.50400        4.28200
H        -11.40300       77.30100        3.26500
C        -10.45500       79.23000        1.23900
O        -10.80200       78.76100        2.31800
N         -9.98500       80.47400        1.12600
H         -9.83000       80.80700        0.18400
C         -9.61500       81.38800        2.22300
H         -9.23300       82.30100        1.76300
C        -10.84700       81.79500        3.04400
H        -11.28100       80.90800        3.50300
H        -10.52000       82.44400        3.85800
S        -12.15200       82.66800        2.15000
C         -8.48700       80.88400        3.14900
O         -7.45300       81.53300        3.25300
N         -8.67400       79.74700        3.82800
H         -9.54200       79.24900        3.66900
C         -7.78900       79.24600        4.89400
H         -6.78000       79.61000        4.69500
C         -8.22800       79.83500        6.25400
H         -8.26300       80.92000        6.15000
C         -9.62100       79.36400        6.69900
H         -9.62700       78.28800        6.87400
H         -9.89800       79.87100        7.62400
H        -10.36400       79.61100        5.94100
C         -7.22900       79.52100        7.37400
H         -6.22900       79.83700        7.07700
H         -7.50900       80.07300        8.27200
H         -7.22700       78.45700        7.60800
C         -7.72700       77.71300        4.90300
O         -8.69900       77.03000        4.58700
N         -6.58600       77.13600        5.25500
H         -5.79300       77.70000        5.51700
H         -6.53700       76.13100        5.27100
H        -19.08000       79.29400        1.27000
C        -19.16100       78.25700        1.59100
H        -19.76800       77.70000        0.88000
H        -19.63100       78.21500        2.57400
C        -17.78500       77.64100        1.66800
O        -17.34100       77.24600        2.74200
N        -17.08600       77.58900        0.53300
H        -17.49300       77.98700       -0.30100
C        -15.75100       76.97600        0.42000
H        -15.82500       75.93200        0.72700
C        -15.30000       77.02300       -1.05200
H        -14.52300       76.27000       -1.19000
H        -16.13300       76.75900       -1.70500
C        -14.73700       78.35900       -1.48000
N        -15.35700       79.59800       -1.30400
C        -14.46900       80.51500       -1.72300
H        -14.63500       81.58500       -1.70900
N        -13.33700       79.91900       -2.13800
H        -12.48700       80.39900       -2.43100
C        -13.49700       78.55800       -2.01000
H        -12.77100       77.79200       -2.24500
C        -14.70700       77.64100        1.33600
O        -13.78300       76.97700        1.80000
N        -14.88900       78.93300        1.62800
H        -15.61800       79.40300        1.11200
C        -14.05700       79.74100        2.51700
H        -13.07400       79.84900        2.06400
C        -14.70800       81.13000        2.59700
H        -14.92700       81.47100        1.58400
H        -15.65600       81.04300        3.12900
S        -13.74300       82.43200        3.39800
C        -13.88000       79.08700        3.90000
O        -12.76600       78.99000        4.41600
N        -14.96000       78.52200        4.44800
H        -15.84100       78.60000        3.96000
C        -14.90800       77.62800        5.60400
H        -14.10000       77.95000        6.26400
C        -16.21500       77.73000        6.40500
H        -17.03600       77.32800        5.80900
H        -16.12600       77.11900        7.30400
C        -16.57600       79.13200        6.80100
C        -16.23700       79.73400        7.96300
H        -15.69200       79.26000        8.77100
N        -16.65600       81.05100        7.94500
H        -16.50800       81.69500        8.71000
C        -17.27400       81.37100        6.75600
C        -17.83000       82.55600        6.25200
H        -17.81600       83.46000        6.84300
C        -18.41300       82.54900        4.97400
H        -18.85400       83.45300        4.57400
C        -18.44200       81.36000        4.22300
H        -18.91400       81.35600        3.25000
C        -17.87700       80.17700        4.73900
H        -17.92700       79.26400        4.16900
C        -17.26600       80.15400        6.01200
C        -14.57700       76.20100        5.14700
O        -13.49200       75.69400        5.42000
N        -15.43700       75.57400        4.35600
H        -16.28200       76.04500        4.05600
H        -15.21900       74.64500        4.04000
