117
1 1
H        -10.25400       76.14400        9.94600
C        -10.97000       76.57400       10.64500
H        -10.67200       77.58800       10.90300
H        -11.00300       75.96700       11.54900
C        -12.34300       76.59600       10.01500
O        -13.26900       75.97900       10.53200
N        -12.47600       77.29400        8.88300
H        -11.65500       77.75800        8.52000
C        -13.74400       77.48800        8.15900
H        -14.45800       76.73800        8.48300
C        -14.32200       78.86700        8.53800
H        -14.48100       78.89600        9.61700
H        -13.58500       79.63400        8.29300
C        -15.64200       79.24300        7.84100
H        -15.91900       80.24500        8.17300
H        -15.47100       79.28100        6.76900
C        -16.81100       78.28800        8.13500
H        -16.63600       77.32400        7.65400
H        -16.87100       78.12900        9.21300
C        -18.15600       78.86000        7.65900
H        -18.95300       78.20600        8.02400
H        -18.30300       79.85000        8.09900
N        -18.25000       78.94300        6.18400
H        -18.06000       78.03200        5.76800
H        -19.17500       79.24600        5.88900
H        -17.55900       79.57600        5.78300
C        -13.55100       77.32700        6.65100
O        -12.81500       78.09300        6.03700
N        -14.25900       76.37200        6.04700
H        -14.83500       75.76200        6.61100
C        -14.42900       76.30700        4.59400
H        -13.45300       76.26300        4.10900
C        -15.20800       75.01800        4.28400
H        -14.72300       74.20100        4.81900
H        -16.20200       75.11900        4.70400
S        -15.36200       74.46900        2.55800
C        -15.17700       77.58000        4.15400
O        -16.29900       77.79400        4.60800
N        -14.54000       78.45200        3.35900
H        -13.61600       78.19200        3.04800
C        -15.00200       79.82000        3.01700
H        -14.16000       80.33000        2.54800
C        -16.12300       79.79900        1.95100
H        -16.92000       79.12500        2.26900
C        -16.73300       81.18100        1.67700
H        -17.27600       81.54200        2.55000
H        -15.95300       81.89600        1.41400
H        -17.44400       81.11400        0.85300
C        -15.55700       79.30900        0.60900
H        -15.06000       78.34800        0.72600
H        -16.36800       79.18900       -0.11000
H        -14.83800       80.02700        0.21500
C        -15.35000       80.65700        4.26300
O        -16.45500       80.62300        4.80400
N        -14.39400       81.42800        4.76000
H        -13.47900       81.44000        4.34000
H        -14.60200       81.99500        5.56600
H        -17.30000       70.48800        2.96600
C        -17.00500       70.95700        3.90400
H        -16.03400       71.43300        3.78300
H        -16.95200       70.20200        4.68700
C        -18.03200       71.99600        4.28000
O        -18.99600       72.20600        3.55300
N        -17.81200       72.67700        5.40400
H        -16.97000       72.46900        5.92600
C        -18.69800       73.70100        5.98600
H        -19.71600       73.33300        5.87700
C        -18.43400       73.80400        7.50000
H        -19.11600       74.54300        7.92200
H        -18.69300       72.84400        7.94900
C        -17.02400       74.13900        7.93800
N        -15.84000       73.70200        7.33100
C        -14.85400       73.95200        8.20400
H        -13.81000       73.70500        8.05000
N        -15.34500       74.55000        9.29900
H        -14.78000       74.85600       10.09500
C        -16.70900       74.66700        9.15700
H        -17.41200       74.99600        9.91000
C        -18.68400       75.05100        5.24100
O        -18.65600       76.12800        5.84500
N        -18.68100       74.99800        3.90700
H        -18.75500       74.07100        3.49900
C        -18.70700       76.13000        2.97800
H        -18.07100       76.91700        3.36900
C        -18.10000       75.69500        1.63600
H        -18.34900       74.65300        1.42500
H        -18.54500       76.29900        0.84400
S        -16.30500       75.94300        1.51100
C        -20.10800       76.76400        2.88100
O        -20.70200       76.87900        1.81200
N        -20.63800       77.16900        4.03600
H        -20.10500       76.97600        4.87200
C        -21.98500       77.71600        4.22000
H        -22.46500       77.82200        3.24600
C        -22.81600       76.72900        5.05800
H        -22.56400       76.88100        6.10900
H        -23.87400       76.96900        4.93900
C        -22.62200       75.26800        4.75700
C        -22.60500       74.70500        3.52600
H        -22.74200       75.24300        2.59400
N        -22.32600       73.35700        3.63500
H        -22.21600       72.74200        2.83900
C        -22.17700       72.97300        4.94800
C        -21.88000       71.74500        5.55700
H        -21.73600       70.86100        4.95400
C        -21.76900       71.68500        6.95600
H        -21.55300       70.74300        7.44300
C        -21.95000       72.85100        7.72300
H        -21.87700       72.79600        8.80100
C        -22.24000       74.08100        7.09900
H        -22.38600       74.96400        7.70200
C        -22.36400       74.17500        5.69500
C        -21.92600       79.10400        4.87500
O        -20.94400       79.45100        5.53600
N        -22.96900       79.90900        4.72700
H        -22.93900       80.82000        5.15700
H        -23.76800       79.61500        4.18900
