117
1 1
H        -12.94700       80.11400       -1.39200
C        -12.31300       80.18500       -0.51000
H        -12.56400       81.08100        0.05500
H        -11.26900       80.23200       -0.81800
C        -12.51800       78.96500        0.35700
O        -11.57800       78.21800        0.60700
N        -13.75100       78.75600        0.82700
H        -14.47100       79.40500        0.54800
C        -14.14600       77.58000        1.62000
H        -13.42600       77.44600        2.42500
C        -15.53500       77.84100        2.24200
H        -15.46900       78.71500        2.89100
H        -16.23400       78.08300        1.43900
C        -16.14600       76.67900        3.05100
H        -17.13900       76.98900        3.37900
H        -16.27000       75.81600        2.39900
C        -15.33300       76.27300        4.29200
H        -14.37900       75.84100        3.98700
H        -15.13400       77.16500        4.88900
C        -16.08900       75.26700        5.17700
H        -15.53200       75.14100        6.11000
H        -17.07500       75.66500        5.42600
N        -16.22200       73.94400        4.53000
H        -16.63200       73.24100        5.14000
H        -16.77400       73.97100        3.67600
H        -15.30600       73.59500        4.25400
C        -14.13000       76.31500        0.75200
O        -14.99000       76.14400       -0.10800
N        -13.19900       75.39700        1.02000
H        -12.49800       75.60200        1.71600
C        -13.28900       74.03100        0.50200
H        -13.32300       74.06200       -0.58800
C        -12.05500       73.23700        0.93900
H        -11.15600       73.73900        0.58000
H        -12.02000       73.22400        2.02900
S        -12.01800       71.52700        0.34600
C        -14.57700       73.38000        1.03000
O        -14.84000       73.47400        2.22600
N        -15.37600       72.74600        0.16500
H        -15.07000       72.68600       -0.79400
C        -16.73300       72.24500        0.48200
H        -17.18100       71.91600       -0.45500
C        -16.69100       70.99600        1.39600
H        -16.25200       71.25900        2.35800
C        -18.09100       70.41900        1.64800
H        -18.71100       71.13900        2.18100
H        -18.56800       70.15400        0.70400
H        -18.00900       69.52700        2.26900
C        -15.84600       69.88400        0.75700
H        -14.80900       70.20100        0.66400
H        -15.86700       68.99600        1.39000
H        -16.23900       69.62500       -0.22700
C        -17.63700       73.37000        1.02000
O        -17.77500       73.59400        2.22000
N        -18.24300       74.13900        0.12700
H        -18.10100       73.98700       -0.85800
H        -18.82600       74.89000        0.45800
H         -7.66000       71.72400        6.79900
C         -8.38200       71.03300        6.36700
H         -8.32900       70.07900        6.89000
H         -8.15900       70.88300        5.31100
C         -9.77100       71.60200        6.51500
O        -10.63000       71.00200        7.15100
N        -10.02500       72.75600        5.90000
H         -9.30000       73.18100        5.33500
C        -11.32600       73.44200        5.95800
H        -11.68800       73.35600        6.98000
C        -11.13100       74.93800        5.67300
H        -12.05800       75.45800        5.91400
H        -10.35600       75.32800        6.33400
C        -10.75400       75.27200        4.25100
N         -9.83800       74.57200        3.46400
C         -9.67700       75.29800        2.34700
H         -9.01100       75.03800        1.53300
N        -10.45200       76.39500        2.39000
H        -10.50000       77.11900        1.66800
C        -11.12400       76.40500        3.59000
H        -11.74900       77.19500        3.98100
C        -12.42000       72.80600        5.08100
O        -13.51300       73.35700        4.96900
N        -12.15900       71.63600        4.49300
H        -11.24200       71.24700        4.64500
C        -13.08600       70.85200        3.66700
H        -13.56400       71.52600        2.96300
C        -12.27500       69.83300        2.85500
H        -11.80800       69.13000        3.54600
H        -12.96000       69.26300        2.22400
S        -10.98200       70.53000        1.78900
C        -14.22900       70.16100        4.44700
O        -14.93500       69.32500        3.88900
N        -14.42100       70.47400        5.73100
H        -13.83000       71.17700        6.14700
C        -15.52200       69.95100        6.54500
H        -15.51600       68.86200        6.46600
C        -15.28000       70.31700        8.01900
H        -16.19300       70.13200        8.58600
H        -14.52600       69.63000        8.40700
C        -14.81300       71.71800        8.30800
C        -13.54500       72.04800        8.64600
H        -12.72600       71.34000        8.74900
N        -13.46000       73.40600        8.87700
H        -12.62800       73.85400        9.23500
C        -14.66800       74.03300        8.66800
C        -15.07700       75.37100        8.77200
H        -14.37200       76.13600        9.06100
C        -16.42500       75.69500        8.54000
H        -16.76500       76.71600        8.64800
C        -17.33800       74.67900        8.20400
H        -18.38200       74.92500        8.05600
C        -16.91300       73.34000        8.09600
H        -17.63400       72.57000        7.86900
C        -15.56400       72.97700        8.31800
C        -16.89800       70.42700        6.04800
O        -17.05700       71.53900        5.55100
N        -17.93000       69.60900        6.20500
H        -17.80000       68.69500        6.60500
H        -18.83300       69.90900        5.87400
