106
0 1
H         17.87200        1.18700      -21.52500
C         17.05600        1.21400      -22.24500
H         16.21200        0.64300      -21.86300
H         17.38800        0.79100      -23.19200
C         16.63200        2.64500      -22.46400
O         16.72000        3.15600      -23.57200
N         16.19900        3.31000      -21.39600
H         16.16800        2.79600      -20.52000
C         15.67400        4.68700      -21.37400
H         14.96500        4.75700      -22.20000
C         14.86400        4.89700      -20.07500
H         14.28100        5.81100      -20.19400
H         14.14900        4.07900      -19.96200
C         15.67800        5.03500      -18.77200
H         16.40100        5.83700      -18.89100
H         15.00000        5.33000      -17.97100
C         16.41500        3.77900      -18.31000
O         16.09900        2.65500      -18.66500
N         17.44200        3.92000      -17.50600
H         17.89600        3.08100      -17.19600
H         17.74500        4.85000      -17.22900
C         16.72300        5.79900      -21.63600
O         16.56900        6.93400      -21.18500
N         17.79700        5.49000      -22.36300
H         17.80500        4.56500      -22.77600
C         18.93800        6.35600      -22.68300
H         19.15400        6.98700      -21.82700
C         20.15400        5.44700      -22.91200
H         20.00100        4.91800      -23.85400
H         21.04800        6.06000      -23.03000
S         20.45400        4.19800      -21.61500
C         18.64600        7.34100      -23.83800
O         19.43800        7.49100      -24.76600
N         17.46500        7.97100      -23.78300
H         16.93700        7.77900      -22.94000
C         16.93800        9.07000      -24.62100
H         15.90200        9.21000      -24.31300
C         17.65800       10.38500      -24.27400
H         18.66900       10.35100      -24.68200
H         17.13300       11.21800      -24.74300
C         17.75000       10.64000      -22.78900
N         18.81600       10.24700      -21.98100
C         18.44500       10.51900      -20.72400
H         19.04400       10.30700      -19.85200
N         17.21800       11.06100      -20.69800
H         16.71000       11.29300      -19.84700
C         16.75700       11.13900      -21.99500
H         15.78300       11.47300      -22.32400
C         16.83800        8.85700      -26.14400
O         16.10500        9.58500      -26.80200
N         17.49400        7.87200      -26.73700
H         18.16400        7.33700      -26.20100
H         17.39900        7.75800      -27.73100
H         25.59300       11.68500      -17.30700
C         24.70200       12.24800      -17.57800
H         24.98300       13.25600      -17.87900
H         24.02000       12.29500      -16.73100
C         24.01000       11.56400      -18.73200
O         23.82700       12.16700      -19.78500
N         23.61400       10.31100      -18.52900
H         23.74600        9.90300      -17.61500
C         22.84600        9.51800      -19.49200
H         22.17300       10.19900      -20.01400
C         23.79400        8.84800      -20.51800
H         24.83300        8.95800      -20.20100
H         23.58600        7.77800      -20.57100
C         23.63800        9.44800      -21.92700
H         23.94700       10.49300      -21.90500
H         24.28900        8.91700      -22.62200
C         22.20200        9.35000      -22.43300
O         21.51600        8.36400      -22.22500
N         21.65300       10.38500      -23.01900
H         20.65300       10.31000      -23.16200
H         22.16300       11.23600      -23.16000
C         21.94500        8.49400      -18.78200
O         22.11400        8.21400      -17.59600
N         20.96600        7.94900      -19.51000
H         20.95000        8.17300      -20.50200
C         19.98600        6.96000      -19.04800
H         19.29100        6.81200      -19.86700
C         20.67200        5.60400      -18.84200
H         21.31200        5.68200      -17.96200
H         19.91800        4.84400      -18.64100
S         21.70600        5.04200      -20.23400
C         19.07300        7.42100      -17.89100
O         18.28700        6.63100      -17.36400
N         19.07800        8.71800      -17.56700
H         19.82600        9.28700      -17.94500
C         18.03400        9.43900      -16.82600
H         17.73100        8.83300      -15.97100
C         18.63500       10.75200      -16.28800
H         17.86500       11.30000      -15.74400
H         19.42500       10.50600      -15.57800
C         19.23000       11.65400      -17.34700
N         20.42300       11.41500      -18.03500
C         20.57000       12.44300      -18.88700
H         21.39800       12.56200      -19.57500
N         19.53300       13.29000      -18.78200
H         19.41000       14.13000      -19.33000
C         18.67700       12.81000      -17.81500
H         17.73900       13.24000      -17.49400
C         16.77100        9.65500      -17.69100
O         16.32300       10.77200      -17.93200
N         16.20900        8.59100      -18.24200
H         16.60800        7.67800      -18.07600
H         15.42900        8.71600      -18.86600
