106
0 1
H         21.99300        1.66800      -21.06900
C         21.65500        2.19500      -20.17900
H         22.40300        2.10600      -19.39200
H         20.71200        1.77200      -19.83500
C         21.45500        3.65500      -20.50700
O         22.08000        4.51000      -19.89500
N         20.59300        3.92200      -21.48700
H         20.18600        3.12200      -21.94800
C         20.23900        5.23200      -22.06800
H         19.57300        5.02000      -22.90300
C         19.43900        6.08000      -21.06500
H         20.02200        6.23200      -20.15600
H         19.25600        7.05800      -21.50800
C         18.08600        5.44000      -20.70200
H         18.25000        4.50000      -20.17500
H         17.54600        6.11200      -20.03400
C         17.23300        5.17600      -21.93900
O         17.18900        4.07900      -22.47800
N         16.61700        6.19200      -22.49000
H         16.25700        6.06500      -23.42100
H         16.84300        7.13300      -22.18000
C         21.38500        6.01000      -22.73000
O         21.22000        6.49300      -23.84600
N         22.57900        6.05500      -22.14500
H         22.65800        5.66800      -21.20900
C         23.79200        6.56900      -22.79000
H         23.54600        7.50500      -23.28700
C         24.82700        6.90100      -21.71300
H         25.10200        5.97800      -21.20100
H         25.72300        7.30100      -22.18900
S         24.26300        8.09700      -20.46500
C         24.33900        5.65700      -23.91200
O         25.44300        5.88200      -24.40500
N         23.56900        4.65600      -24.35800
H         22.68100        4.50200      -23.90100
C         23.77200        3.96000      -25.63500
H         24.84200        3.82600      -25.80200
C         23.12000        2.57100      -25.56500
H         23.40200        2.00900      -26.45700
H         23.52100        2.03500      -24.70400
C         21.61200        2.58200      -25.46200
N         20.87700        2.83500      -24.30300
C         19.58700        2.66100      -24.63200
H         18.75400        2.75400      -23.94400
N         19.47700        2.35500      -25.93600
H         18.61300        2.13400      -26.41500
C         20.74400        2.30300      -26.47600
H         21.01600        2.05300      -27.49400
C         23.23400        4.74400      -26.84700
O         23.44900        4.34100      -27.98200
N         22.52200        5.84900      -26.65600
H         22.20500        6.36000      -27.46200
H         22.31800        6.18200      -25.72300
H         26.60400       12.49200      -24.21600
C         26.01000       13.13600      -24.86000
H         26.56900       13.36300      -25.76700
H         25.76800       14.06000      -24.33700
C         24.72900       12.42800      -25.23000
O         23.64600       12.90300      -24.91700
N         24.85200       11.27000      -25.87200
H         25.79700       10.96700      -26.08600
C         23.75800       10.44400      -26.41100
H         23.11600       11.11700      -26.98200
C         24.34700        9.42500      -27.41400
H         23.51500        8.97300      -27.95500
H         24.95100        9.95400      -28.15300
C         25.18100        8.28000      -26.80000
H         24.61100        7.80900      -26.00200
H         25.34500        7.52500      -27.56800
C         26.55200        8.68700      -26.25700
O         27.10500        9.73100      -26.56200
N         27.15000        7.88800      -25.40700
H         26.69000        7.03600      -25.10000
H         28.05500        8.16800      -25.07900
C         22.82900        9.78100      -25.36100
O         22.17100        8.78600      -25.66000
N         22.77800       10.29900      -24.13200
H         23.25900       11.17900      -23.99000
C         21.93200        9.82300      -23.03500
H         21.94600        8.73900      -23.00800
C         22.52200       10.33600      -21.71400
H         22.43800       11.42400      -21.71400
H         21.91600        9.96600      -20.88700
S         24.26600        9.91900      -21.39300
C         20.46500       10.24800      -23.24200
O         20.00900       11.24900      -22.69100
N         19.73600        9.51400      -24.08800
H         20.17600        8.69900      -24.50000
C         18.35400        9.83700      -24.47000
H         18.30400       10.91400      -24.63800
C         18.00600        9.14800      -25.80300
H         16.99200        9.42200      -26.09400
H         18.67800        9.52800      -26.57400
C         18.10600        7.64300      -25.78900
N         17.09600        6.75700      -25.41200
C         17.64600        5.53300      -25.47300
H         17.13500        4.62000      -25.19400
N         18.92900        5.60800      -25.86600
H         19.58400        4.83600      -25.90200
C         19.23100        6.93200      -26.08100
H         20.19100        7.34600      -26.35600
C         17.32900        9.53500      -23.36100
O         17.58200        8.80800      -22.40500
N         16.13100       10.09300      -23.46700
H         15.91400       10.68700      -24.24900
H         15.45700        9.91200      -22.74300
