114
0 1
H        -24.76200      -28.96700       28.99000
C        -25.38600      -28.61800       29.81100
H        -24.77400      -28.47000       30.69900
H        -26.16800      -29.34500       30.01800
C        -26.02000      -27.30400       29.42200
O        -25.83700      -26.83300       28.30500
N        -26.76000      -26.70100       30.34900
H        -26.80800      -27.12500       31.27000
C        -27.36900      -25.37300       30.18700
H        -27.72500      -25.28000       29.16000
C        -28.59400      -25.19600       31.12200
H        -28.24100      -25.21200       32.15200
C        -29.27600      -23.83800       30.86000
H        -29.69700      -23.81700       29.85400
H        -30.06900      -23.66500       31.58600
H        -28.56600      -23.01800       30.96200
C        -29.61600      -26.34800       30.95500
H        -29.11500      -27.30400       31.10700
H        -30.01600      -26.33600       29.94000
C        -30.78100      -26.30600       31.95300
H        -30.39600      -26.23900       32.97200
H        -31.43200      -25.45600       31.74900
H        -31.36900      -27.21900       31.85700
C        -26.27500      -24.31300       30.39700
O        -26.15600      -23.71500       31.46800
N        -25.40600      -24.15500       29.39900
H        -25.50200      -24.76300       28.59300
C        -24.25400      -23.25600       29.45200
H        -23.97300      -23.10500       30.48900
C        -23.05000      -23.90200       28.75600
H        -23.28300      -24.02200       27.69700
H        -22.21600      -23.20400       28.82800
S        -22.46600      -25.50900       29.39200
C        -24.58100      -21.87000       28.87800
O        -25.12400      -21.75000       27.78100
N        -24.21600      -20.81400       29.60900
H        -23.71900      -20.98800       30.47800
C        -24.50000      -19.41200       29.28000
H        -25.47500      -19.37100       28.79100
C        -24.59200      -18.58300       30.58000
H        -23.59900      -18.53200       31.02900
H        -24.88800      -17.56800       30.31200
C        -25.57400      -19.11600       31.64500
H        -25.20700      -20.06400       32.03800
C        -25.66100      -18.12000       32.80300
H        -24.66600      -17.93100       33.20200
H        -26.08900      -17.17900       32.45600
H        -26.28600      -18.53100       33.59500
C        -26.99100      -19.32400       31.10600
H        -27.65300      -19.62600       31.91700
H        -27.36300      -18.40100       30.65900
H        -26.99200      -20.11600       30.35800
C        -23.49500      -18.83600       28.26000
O        -22.83100      -17.83300       28.49900
N        -23.33800      -19.48700       27.11700
H        -22.68200      -19.13100       26.44400
H        -23.89500      -20.31200       26.94100
H        -17.62200      -20.92000       30.83200
C        -18.33000      -20.15700       31.15300
H        -18.94000      -19.84700       30.30600
H        -17.79000      -19.30300       31.55500
C        -19.22300      -20.73600       32.22400
O        -19.06900      -21.89100       32.60100
N        -20.16600      -19.93300       32.71600
H        -20.25600      -19.01100       32.32200
C        -21.17300      -20.38100       33.69000
H        -20.65800      -20.87100       34.51700
C        -21.96400      -19.17600       34.25700
H        -22.37700      -18.61900       33.41400
C        -23.13600      -19.63900       35.14700
H        -22.76300      -20.22600       35.98700
H        -23.68600      -18.78100       35.53000
H        -23.84400      -20.23700       34.57300
C        -21.02100      -18.23700       35.04800
H        -20.15000      -17.99900       34.43700
H        -20.66800      -18.74800       35.94500
C        -21.65700      -16.90000       35.45100
H        -22.43400      -17.05300       36.19900
H        -20.89100      -16.25300       35.87900
H        -22.08300      -16.41100       34.57400
C        -22.09400      -21.41600       33.02700
O        -22.60200      -21.18200       31.93000
N        -22.33500      -22.54700       33.69200
H        -21.90200      -22.69900       34.59100
C        -23.16200      -23.62700       33.15800
H        -23.93900      -23.18300       32.54000
C        -22.28200      -24.52700       32.27800
H        -21.71500      -23.89300       31.59500
H        -21.56500      -25.05700       32.90800
S        -23.19900      -25.73300       31.28900
C        -23.87800      -24.41800       34.26200
O        -23.34400      -24.57300       35.36000
N        -25.08000      -24.92300       33.96400
H        -25.45700      -24.72500       33.04200
C        -25.91800      -25.70500       34.87700
H        -25.37600      -25.84800       35.81300
C        -27.18500      -24.88200       35.18700
H        -26.88600      -23.95500       35.68000
H        -27.65300      -24.61000       34.24200
C        -28.24000      -25.59000       36.05600
H        -28.52700      -26.53300       35.59200
C        -27.72700      -25.86700       37.47200
H        -27.42900      -24.93300       37.94900
H        -28.51600      -26.33300       38.06200
H        -26.87500      -26.54200       37.44200
C        -29.48900      -24.71600       36.16300
H        -29.89400      -24.53100       35.16800
H        -30.24800      -25.22600       36.75800
H        -29.24300      -23.76300       36.63400
C        -26.22100      -27.09900       34.30000
O        -26.61100      -27.24800       33.14700
N        -26.07700      -28.14500       35.10100
H        -26.27900      -29.05900       34.73000
H        -25.74600      -28.02100       36.04300
