114
0 1
H        -19.10300      -24.86500       25.84500
C        -19.75100      -24.43000       25.08700
H        -19.42500      -24.74500       24.09800
H        -19.72000      -23.34400       25.15600
C        -21.16800      -24.89600       25.32000
O        -22.00500      -24.11900       25.76100
N        -21.44100      -26.16900       25.04100
H        -20.68800      -26.75200       24.69000
C        -22.75700      -26.78500       25.25800
H        -23.52300      -26.10300       24.88700
C        -22.88400      -28.11000       24.46700
H        -22.14900      -28.81200       24.86100
C        -24.27500      -28.73800       24.67400
H        -24.40700      -29.03200       25.71600
H        -25.06000      -28.03100       24.40600
H        -24.37300      -29.63200       24.05800
C        -22.58300      -27.95400       22.95700
H        -22.68600      -28.93000       22.48100
H        -21.54300      -27.65200       22.83000
C        -23.47000      -26.95500       22.19900
H        -23.34700      -25.95200       22.60700
H        -23.17500      -26.94100       21.15000
H        -24.51700      -27.25000       22.26100
C        -22.99700      -26.97200       26.76300
O        -22.51300      -27.93200       27.36500
N        -23.69200      -26.01600       27.38100
H        -23.94300      -25.19900       26.84400
C        -23.98300      -26.00700       28.81400
H        -23.08800      -26.28600       29.34900
C        -24.33600      -24.58800       29.26400
H        -25.23900      -24.27300       28.73900
H        -24.55900      -24.60400       30.33100
S        -23.04700      -23.34400       28.97900
C        -25.07700      -27.00200       29.22500
O        -26.13900      -27.06400       28.60500
N        -24.84900      -27.71700       30.33100
H        -23.92900      -27.63800       30.75500
C        -25.81900      -28.60700       30.98500
H        -26.36300      -29.15500       30.21300
C        -25.06800      -29.63700       31.86000
H        -24.27100      -29.13500       32.41000
H        -25.77000      -30.03600       32.59200
C        -24.49500      -30.85100       31.10200
H        -25.31300      -31.36500       30.59600
C        -23.42500      -30.50900       30.06600
H        -22.61800      -29.94300       30.53100
H        -23.02200      -31.42700       29.63900
H        -23.85700      -29.92400       29.25500
C        -23.86900      -31.82000       32.10700
H        -23.03500      -31.34000       32.61900
H        -24.61500      -32.12300       32.84100
H        -23.51000      -32.71000       31.58900
C        -26.88000      -27.79900       31.76800
O        -27.00500      -27.88800       32.98400
N        -27.64500      -26.96000       31.08500
H        -28.33500      -26.42300       31.58100
H        -27.51400      -26.87800       30.08500
H        -18.32300      -23.67400       33.53700
C        -17.81300      -24.56900       33.88900
H        -17.87500      -24.63200       34.97400
H        -16.76700      -24.53400       33.58600
C        -18.45900      -25.78800       33.27800
O        -17.80900      -26.53900       32.56400
N        -19.75100      -25.97600       33.53800
H        -20.20900      -25.29600       34.12300
C        -20.56300      -27.11900       33.07100
H        -19.94700      -28.01400       33.17500
C        -21.79800      -27.31000       33.98800
H        -22.35400      -28.17000       33.61000
C        -21.34900      -27.66800       35.41700
H        -22.20900      -27.97500       36.01200
H        -20.64600      -28.50100       35.38600
H        -20.87100      -26.81500       35.89800
C        -22.74400      -26.08300       33.98100
H        -22.91600      -25.75700       32.95500
H        -22.28000      -25.25600       34.51800
C        -24.11500      -26.37100       34.60300
H        -24.57400      -27.22700       34.11000
H        -24.01500      -26.57500       35.66900
H        -24.76000      -25.50100       34.47300
C        -20.92900      -27.05600       31.56900
O        -22.04800      -27.39700       31.18700
N        -20.00800      -26.59100       30.72000
H        -19.07800      -26.42100       31.09000
C        -20.24800      -26.25200       29.31600
H        -21.19900      -26.66300       29.00600
C        -20.31000      -24.72200       29.17700
H        -19.32100      -24.32500       29.41000
H        -20.52300      -24.47100       28.13800
S        -21.51200      -23.85100       30.22800
C        -19.18300      -26.86300       28.39500
O        -18.02300      -26.45500       28.41400
N        -19.57700      -27.83900       27.57300
H        -20.55700      -28.10800       27.58200
C        -18.66800      -28.58300       26.69600
H        -17.74600      -28.78900       27.23800
C        -19.30700      -29.92800       26.28700
H        -20.31500      -29.74100       25.91600
H        -18.73400      -30.32800       25.44900
C        -19.38100      -31.04300       27.35100
H        -19.82500      -31.91300       26.86700
C        -17.99900      -31.45600       27.86000
H        -18.09600      -32.33600       28.49600
H        -17.35400      -31.70400       27.01700
H        -17.54700      -30.65300       28.44200
C        -20.25700      -30.69800       28.55500
H        -21.22200      -30.32700       28.20700
H        -20.42000      -31.59400       29.15400
H        -19.78000      -29.94400       29.17800
C        -18.29000      -27.73800       25.46800
O        -19.03800      -27.64200       24.49900
N        -17.12800      -27.10200       25.49300
H        -16.57200      -27.11900       26.33400
H        -16.86500      -26.54400       24.69800
