96
0 1
H        -61.98600       -8.69000       40.29200
C        -61.29600       -9.50700       40.50200
H        -60.89200       -9.89100       39.56600
H        -61.82200      -10.29900       41.03100
C        -60.16600       -8.99200       41.36000
O        -60.12300       -7.80700       41.66900
N        -59.24600       -9.88300       41.72800
H        -59.34700      -10.82600       41.39300
C        -58.05400       -9.57000       42.52400
H        -58.37800       -9.09900       43.45400
C        -57.36300      -10.89800       42.86900
H        -58.06600      -11.56300       43.37300
H        -57.00200      -11.37800       41.95800
H        -56.51700      -10.72100       43.53300
C        -57.09000       -8.58400       41.82300
O        -57.29800       -8.20500       40.67000
N        -56.03500       -8.16000       42.52500
H        -55.90600       -8.51300       43.45800
C        -55.05800       -7.19200       42.01900
H        -55.60400       -6.31200       41.67600
C        -54.14500       -6.76000       43.17700
H        -54.70900       -6.86100       44.10400
H        -53.28600       -7.42900       43.24200
S        -53.56500       -5.04300       43.14500
C        -54.26700       -7.77500       40.83300
O        -53.45300       -8.68300       40.99400
N        -54.51800       -7.24400       39.64000
H        -55.21500       -6.50700       39.61600
C        -53.93400       -7.62800       38.34600
H        -53.88400       -8.71700       38.31700
C        -54.88200       -7.19400       37.20300
H        -54.41000       -7.45300       36.25400
H        -55.79700       -7.78500       37.26700
C        -55.26300       -5.70000       37.16500
H        -54.40200       -5.08400       37.43000
H        -55.55200       -5.44300       36.14400
C        -56.43800       -5.38800       38.10000
O        -56.19800       -5.02600       39.28000
O        -57.61100       -5.56500       37.71000
C        -52.47800       -7.14100       38.16200
O        -52.11200       -6.53500       37.16300
N        -51.61500       -7.36500       39.14400
H        -51.92000       -7.86600       39.96700
H        -50.66800       -7.04100       39.03700
H        -56.67500       -3.78900       45.88400
C        -57.57300       -4.20400       45.43000
H        -58.43500       -3.59100       45.68700
H        -57.72700       -5.22000       45.79000
C        -57.40400       -4.23200       43.93000
O        -57.43500       -5.30100       43.32900
N        -57.23200       -3.05400       43.32500
H        -57.17600       -2.23200       43.90800
C        -56.90500       -2.88600       41.90100
H        -57.04300       -3.83200       41.38100
C        -57.81300       -1.82700       41.24800
H        -57.80700       -0.92600       41.86400
H        -57.38800       -1.55600       40.28100
C        -59.27300       -2.25600       41.01300
H        -59.75900       -2.47400       41.96500
H        -59.79100       -1.40600       40.56500
C        -59.41500       -3.45300       40.05700
H        -60.33900       -3.34700       39.48600
H        -58.58800       -3.44500       39.34200
C        -59.47300       -4.78600       40.81500
H        -59.05700       -4.65400       41.81600
H        -60.51600       -5.09300       40.92600
N        -58.70900       -5.84000       40.12100
H        -58.89500       -5.88200       39.12000
H        -57.71500       -5.62400       40.10400
H        -58.82000       -6.75600       40.54800
C        -55.43500       -2.51000       41.71500
O        -54.95100       -1.56400       42.32600
N        -54.76900       -3.23200       40.82200
H        -55.27900       -3.98900       40.37600
C        -53.42900       -2.95700       40.30400
H        -52.90000       -2.27900       40.97600
C        -52.66500       -4.28700       40.24500
H        -53.30600       -5.03100       39.78400
H        -51.80800       -4.15400       39.58100
S        -52.01400       -4.93600       41.81800
C        -53.48700       -2.28300       38.91600
O        -52.45900       -1.86400       38.39000
N        -54.68400       -2.16600       38.32400
H        -55.47800       -2.56400       38.80500
C        -54.97600       -1.54900       37.02200
H        -54.27700       -1.95200       36.28800
C        -56.39600       -1.96400       36.60400
H        -56.61200       -1.57800       35.60600
H        -56.46900       -3.05100       36.57900
O        -57.34100       -1.44800       37.52500
H        -57.31500       -0.48600       37.41400
C        -54.81500       -0.01300       37.02100
O        -55.75900        0.73000       36.76200
N        -53.63900        0.50100       37.34700
H        -52.88100       -0.12100       37.60200
H        -53.53300        1.50100       37.36500
