96
0 1
H        -45.38900       -4.77700       44.40800
C        -46.21400       -4.12000       44.13400
H        -46.07200       -3.13900       44.58400
H        -47.14900       -4.55200       44.48900
C        -46.26900       -3.98800       42.63200
O        -47.24700       -4.39300       42.01200
N        -45.21400       -3.42800       42.04000
H        -44.46100       -3.10100       42.62300
C        -45.07200       -3.27400       40.58500
H        -46.01700       -2.90600       40.18100
C        -43.99900       -2.20900       40.32500
H        -44.27500       -1.27400       40.81300
H        -43.03300       -2.54800       40.70400
H        -43.91500       -2.03300       39.25200
C        -44.74400       -4.59000       39.84100
O        -44.81600       -4.63900       38.61600
N        -44.38700       -5.64900       40.57000
H        -44.38800       -5.56300       41.57500
C        -44.11200       -6.98800       40.05400
H        -44.76700       -7.18200       39.20300
C        -42.65700       -7.05600       39.57500
H        -42.46700       -6.21100       38.91100
H        -42.00500       -6.95400       40.44300
S        -42.18300       -8.56400       38.68800
C        -44.41300       -8.02600       41.14700
O        -44.38800       -7.69900       42.33400
N        -44.74300       -9.25300       40.74800
H        -44.73800       -9.44100       39.75700
C        -45.29800      -10.30500       41.61300
H        -44.80700      -10.25400       42.58700
C        -46.82900      -10.14200       41.83900
H        -47.33600      -11.05000       41.51100
H        -46.99400      -10.08000       42.91600
C        -47.56700       -8.94900       41.19300
H        -48.63700       -9.05700       41.38600
H        -47.24400       -8.02900       41.68600
C        -47.35100       -8.81100       39.67900
O        -47.13000       -9.82500       38.98100
O        -47.33600       -7.66200       39.18400
C        -45.00200      -11.70400       41.04700
O        -44.46100      -12.55800       41.73600
N        -45.31200      -11.94900       39.77900
H        -45.84800      -11.26400       39.25800
H        -45.11600      -12.86200       39.40500
H        -45.32400       -2.13700       36.52000
C        -46.39400       -1.95800       36.61700
H        -46.80700       -1.65700       35.65600
H        -46.56800       -1.17600       37.35400
C        -47.06300       -3.23200       37.07600
O        -47.64200       -3.26200       38.16000
N        -46.97700       -4.28000       36.25400
H        -46.45200       -4.15900       35.39900
C        -47.44200       -5.64900       36.53200
H        -47.37200       -5.84500       37.59500
C        -48.89400       -5.84600       36.04300
H        -49.00700       -5.33800       35.08300
H        -49.06700       -6.90700       35.85200
C        -50.00300       -5.35400       36.99100
H        -49.80400       -4.33200       37.30900
H        -50.93000       -5.32900       36.41700
C        -50.24000       -6.27200       38.20800
H        -51.28000       -6.59800       38.18300
H        -49.63300       -7.17500       38.12700
C        -49.99100       -5.60600       39.56900
H        -50.57500       -4.68400       39.63200
H        -50.33700       -6.29000       40.34800
N        -48.55700       -5.31800       39.78200
H        -48.22400       -4.60700       39.13600
H        -48.34800       -4.99600       40.72300
H        -48.00400       -6.16100       39.62000
C        -46.52800       -6.67000       35.85200
O        -46.12900       -6.46100       34.71000
N        -46.26800       -7.78400       36.53100
H        -46.61600       -7.84600       37.48600
C        -45.63800       -8.98300       35.96400
H        -45.20000       -8.74300       34.99400
C        -44.50200       -9.42200       36.89400
H        -44.88700       -9.48300       37.90900
H        -44.17100      -10.42000       36.60100
S        -43.05800       -8.32700       36.86400
C        -46.64500      -10.12700       35.71600
O        -46.29900      -11.12700       35.09200
N        -47.88700       -9.99100       36.18800
H        -48.08400       -9.18900       36.77000
C        -48.95900      -10.98400       36.06800
H        -48.88900      -11.46100       35.09000
C        -48.77700      -12.06600       37.14200
H        -49.49100      -12.87100       36.96500
H        -47.77000      -12.48000       37.08000
O        -48.99200      -11.54300       38.43400
H        -48.25900      -10.91000       38.63000
C        -50.34300      -10.32400       36.17700
O        -50.47600       -9.14100       36.48300
N        -51.40900      -11.06500       35.90000
H        -52.31600      -10.63600       35.97600
H        -51.30400      -12.03600       35.66100
