96
0 1
H        -50.34300       -8.16400       45.28700
C        -49.36600       -7.71400       45.45300
H        -49.06500       -7.86000       46.48900
H        -49.41600       -6.64900       45.23300
C        -48.35200       -8.36400       44.54400
O        -47.33600       -8.86700       45.01100
N        -48.60500       -8.33800       43.23700
H        -49.43100       -7.83500       42.93600
C        -47.72000       -8.89300       42.20200
H        -47.33700       -9.85300       42.55300
C        -48.56500       -9.15000       40.94500
H        -47.94300       -9.59700       40.16800
H        -49.38200       -9.83300       41.18000
H        -48.97800       -8.21000       40.57300
C        -46.50000       -7.97800       41.94500
O        -46.32900       -7.43800       40.85100
N        -45.73800       -7.67200       42.99600
H        -45.93000       -8.18300       43.85200
C        -45.08800       -6.36900       43.14000
H        -45.76200       -5.65400       42.68600
C        -45.02300       -6.00900       44.63100
H        -45.72200       -6.62800       45.19500
H        -44.01900       -6.21300       45.00900
S        -45.45000       -4.27800       44.96100
C        -43.76500       -6.15000       42.38100
O        -43.29500       -6.99800       41.62100
N        -43.23000       -4.93400       42.49800
H        -43.64000       -4.29900       43.16600
C        -42.02400       -4.47400       41.79800
H        -41.98100       -4.95400       40.82000
C        -42.08500       -2.94900       41.57400
H        -41.87800       -2.44100       42.51800
H        -41.28900       -2.68300       40.87700
C        -43.41600       -2.39900       41.02000
H        -44.10500       -2.27600       41.85900
H        -43.24100       -1.41000       40.59200
C        -44.07600       -3.30400       39.97200
O        -43.37700       -3.85600       39.09500
O        -45.29800       -3.55400       40.06600
C        -40.73600       -4.86500       42.54300
O        -40.72700       -5.05800       43.75300
N        -39.61500       -4.96200       41.83900
H        -39.61600       -4.78700       40.84800
H        -38.77200       -5.21000       42.33100
H        -47.69000        0.17500       40.12600
C        -47.22200       -0.50600       39.41500
H        -46.26700       -0.84700       39.81000
H        -47.06800        0.00500       38.46700
C        -48.12500       -1.69700       39.20200
O        -49.19100       -1.78400       39.81000
N        -47.68200       -2.65000       38.37400
H        -46.74200       -2.55000       38.01500
C        -48.40300       -3.91400       38.11300
H        -49.42700       -3.64300       37.85100
C        -47.81200       -4.63100       36.88100
H        -48.46600       -5.45800       36.59800
H        -47.82600       -3.92000       36.05200
C        -46.37000       -5.14800       37.03000
H        -45.88600       -5.11100       36.05200
H        -45.81400       -4.48900       37.69300
C        -46.30700       -6.60000       37.52800
H        -46.96700       -6.73900       38.38300
H        -46.65500       -7.25800       36.73000
C        -44.88400       -7.01100       37.92300
H        -44.87400       -8.09100       38.09300
H        -44.19200       -6.77600       37.10900
N        -44.46900       -6.32500       39.16300
H        -44.32100       -5.32100       39.02300
H        -45.18500       -6.43000       39.87600
H        -43.62200       -6.70000       39.57100
C        -48.55800       -4.80000       39.36300
O        -49.35200       -5.73400       39.35100
N        -47.90000       -4.42900       40.46200
H        -47.12400       -3.78600       40.31900
C        -48.21400       -4.78600       41.84500
H        -47.82500       -5.77500       42.05300
C        -47.50200       -3.76000       42.74400
H        -46.47600       -3.63200       42.39500
H        -47.99200       -2.79200       42.63100
S        -47.44600       -4.16000       44.51500
C        -49.72200       -4.81300       42.15200
O        -50.19200       -5.74300       42.80600
N        -50.47900       -3.83500       41.63700
H        -50.01900       -3.11800       41.08400
C        -51.93400       -3.72200       41.82000
H        -52.15600       -3.92900       42.86700
C        -52.36200       -2.27700       41.53300
H        -51.72500       -1.58900       42.09100
H        -52.25600       -2.06800       40.46700
O        -53.70300       -2.07300       41.92500
H        -54.22900       -2.80100       41.55300
C        -52.77300       -4.71200       40.98300
O        -53.99800       -4.63400       40.97700
N        -52.17300       -5.62700       40.23200
H        -52.74700       -6.25500       39.69600
H        -51.16500       -5.69200       40.20700
