96
0 1
H        -50.08200      -11.00300       35.44600
C        -49.59700      -10.57900       36.32200
H        -49.13800      -11.37100       36.91200
H        -50.32600      -10.05100       36.93600
C        -48.52900       -9.60200       35.89200
O        -47.36800       -9.75400       36.26500
N        -48.91700       -8.60300       35.09900
H        -49.89200       -8.54600       34.85900
C        -48.02700       -7.52500       34.66200
H        -47.05900       -7.95600       34.39700
C        -48.61400       -6.87500       33.40200
H        -47.95000       -6.08100       33.05800
H        -48.70700       -7.62100       32.61100
H        -49.59700       -6.45100       33.61100
C        -47.77600       -6.50400       35.78800
O        -46.64000       -6.34100       36.23900
N        -48.83300       -5.86600       36.29300
H        -49.75200       -6.09500       35.94400
C        -48.80600       -5.06000       37.51100
H        -48.12500       -5.53500       38.20900
C        -48.28700       -3.65200       37.19300
H        -47.47400       -3.72100       36.47000
H        -49.09700       -3.08400       36.73300
S        -47.67000       -2.72600       38.62100
C        -50.19200       -5.07000       38.17900
O        -51.20500       -5.22400       37.49700
N        -50.23900       -4.96100       39.50800
H        -49.38500       -4.75400       40.01700
C        -51.38300       -5.36800       40.33000
H        -52.21200       -5.64100       39.67500
C        -51.01300       -6.61900       41.15300
H        -50.17700       -6.39400       41.81600
H        -51.86900       -6.86700       41.78200
C        -50.69100       -7.86900       40.31200
H        -50.76600       -8.74100       40.96500
H        -51.45200       -7.98000       39.53600
C        -49.28700       -7.87000       39.68500
O        -48.27100       -7.69200       40.39800
O        -49.15900       -8.09000       38.46400
C        -51.89700       -4.24200       41.24700
O        -51.18600       -3.31300       41.61800
N        -53.15900       -4.30700       41.65300
H        -53.75100       -5.06600       41.35900
H        -53.49900       -3.57700       42.25700
H        -49.45700       -9.53100       44.69700
C        -49.09800       -9.14000       43.74700
H        -49.49800       -8.14100       43.58400
H        -49.40900       -9.79700       42.93600
C        -47.58900       -9.07100       43.78000
O        -46.97900       -9.42000       44.78300
N        -46.99300       -8.61400       42.67900
H        -47.60100       -8.36800       41.89900
C        -45.53600       -8.47800       42.47900
H        -45.08200       -8.41500       43.47000
C        -44.96800       -9.75800       41.82900
H        -43.89200       -9.64700       41.68300
H        -45.09100      -10.55300       42.56700
C        -45.62600      -10.26000       40.52400
H        -45.64700      -11.34900       40.58500
H        -46.66300       -9.93600       40.45500
C        -44.87700       -9.91700       39.22500
H        -43.81600      -10.13500       39.36100
H        -45.24300      -10.57900       38.43800
C        -45.02200       -8.47400       38.73200
H        -44.66800       -7.78200       39.49600
H        -44.38000       -8.35400       37.85600
N        -46.41400       -8.16100       38.34300
H        -46.47600       -7.30100       37.81000
H        -46.80900       -8.87100       37.73100
H        -47.07100       -8.08600       39.12500
C        -45.10700       -7.16800       41.80100
O        -43.92900       -6.97700       41.51700
N        -46.04500       -6.26400       41.53700
H        -47.01300       -6.55100       41.64800
C        -45.83000       -4.87500       41.12600
H        -44.93800       -4.48000       41.61500
C        -45.62300       -4.83800       39.60500
H        -44.64400       -5.27100       39.39900
H        -46.36400       -5.48100       39.14200
S        -45.68800       -3.22100       38.78100
C        -47.04300       -4.04500       41.57200
O        -48.17400       -4.49400       41.41000
N        -46.82500       -2.85700       42.13900
H        -45.87800       -2.52300       42.24400
C        -47.89000       -1.96000       42.60800
H        -48.77000       -2.54500       42.88400
C        -47.40200       -1.22000       43.85900
H        -48.16400       -0.50900       44.18400
H        -47.22700       -1.93900       44.66100
O        -46.19700       -0.53200       43.58000
H        -46.36400        0.02800       42.80400
C        -48.30000       -0.95200       41.52600
O        -47.54200       -0.04300       41.19600
N        -49.50700       -1.05800       40.99300
H        -49.77800       -0.40300       40.28000
H        -50.10800       -1.83300       41.25000
