103
1 1
H         10.60800      -14.67900       29.45200
C         11.68400      -14.84200       29.43800
H         11.94100      -15.62100       30.15600
H         12.20500      -13.92300       29.70200
C         12.11500      -15.28500       28.06000
O         12.74100      -16.32800       27.91100
N         11.80300      -14.48600       27.03500
H         11.29900      -13.63700       27.24800
C         12.15600      -14.75600       25.62500
H         12.05100      -15.83200       25.47400
C         11.14300      -14.05400       24.69000
H         10.18600      -14.00000       25.21300
H         11.45500      -13.02500       24.50100
C         10.85200      -14.76600       23.35100
H         10.55900      -15.79900       23.54400
H          9.98600      -14.26700       22.91400
C         11.96200      -14.73800       22.28500
H         11.50300      -14.85900       21.30300
H         12.43900      -13.75500       22.29500
N         12.98400      -15.78500       22.48500
H         13.77200      -15.53500       23.07400
C         13.05700      -16.97800       21.92100
N         14.03700      -17.76900       22.23200
H         14.72800      -17.43900       22.89500
H         14.09100      -18.72800       21.91000
N         12.18800      -17.40400       21.05200
H         11.43500      -16.81100       20.77300
H         12.41600      -18.23700       20.51500
C         13.63300      -14.43800       25.33000
O         13.95000      -13.71600       24.38900
N         14.54900      -14.99400       26.12200
H         14.21100      -15.57600       26.88100
C         15.99800      -14.92500       25.89100
H         16.28900      -13.87400       25.85000
C         16.72500      -15.58200       27.07500
H         16.51300      -16.65300       27.06800
H         17.80200      -15.46200       26.94500
C         16.34600      -15.00900       28.43000
C         16.77900      -13.72000       28.79800
H         17.40000      -13.14300       28.12800
C         16.40800      -13.17800       30.04100
H         16.74600      -12.19100       30.32500
C         15.60400      -13.92200       30.92200
H         15.32500      -13.50800       31.88100
C         15.17200      -15.20900       30.55900
H         14.55900      -15.78600       31.23800
C         15.54200      -15.75200       29.31600
H         15.20100      -16.74200       29.04500
C         16.39600      -15.57300       24.55000
O         15.57400      -16.21600       23.89600
N         17.65400      -15.43200       24.12200
H         18.30800      -14.92400       24.70000
C         18.12700      -15.89800       22.80700
H         17.60900      -15.34000       22.02600
C         19.63200      -15.60600       22.70900
H         19.96600      -15.83700       21.69600
H         19.78600      -14.53700       22.86200
S         20.70900      -16.50700       23.87400
C         17.91300      -17.39700       22.53200
O         17.79700      -17.80900       21.37900
N         17.92400      -18.21400       23.58400
H         17.92200      -17.79900       24.50200
C         18.44100      -19.57000       23.50700
H         18.43800      -19.90400       22.47200
C         19.90700      -19.52100       23.97000
H         19.93900      -19.26400       25.03100
H         20.32200      -20.52500       23.87100
S         21.01100      -18.37800       23.07400
C         17.60300      -20.51800       24.38700
O         17.50000      -20.25500       25.58500
N         17.02700      -21.61000       23.84100
C         16.26300      -22.57100       24.62600
H         15.59200      -22.06900       25.32500
H         16.95100      -23.21900       25.17100
C         15.45900      -23.39400       23.62100
H         14.50800      -22.90000       23.41800
H         15.29600      -24.41400       23.97300
C         16.34200      -23.35600       22.37400
H         15.76600      -23.53600       21.46500
H         17.13800      -24.09600       22.47100
C         16.94500      -21.94700       22.41600
H         17.94300      -21.98200       21.97800
C         16.07900      -20.94700       21.62800
O         15.11700      -20.38400       22.15000
N         16.39900      -20.73200       20.34800
H         17.21500      -21.18300       19.96400
C         15.67700      -19.75800       19.50600
H         15.65800      -18.81300       20.05000
C         16.44900      -19.48700       18.19700
H         17.46600      -19.20200       18.46800
C         16.54000      -20.70300       17.26500
H         16.97300      -21.55500       17.78800
H         15.55600      -20.97000       16.88000
H         17.18400      -20.46000       16.41900
C         15.83500      -18.31900       17.41900
H         14.83100      -18.56800       17.07300
H         15.78600      -17.43700       18.05800
H         16.45800      -18.08600       16.55500
C         14.21000      -20.15700       19.27300
O         13.31600      -19.32300       19.37900
N         13.91100      -21.43200       19.05900
H         14.64400      -22.11800       19.00100
H         12.94300      -21.68600       18.94100
