103
1 1
H          5.47500      -15.27000       23.87700
C          5.61200      -16.19200       24.43900
H          5.02100      -16.98300       23.97600
H          5.28600      -16.05200       25.46800
C          7.06900      -16.58800       24.41200
O          7.40300      -17.66500       23.93600
N          7.93600      -15.73200       24.96900
H          7.53700      -14.89000       25.35500
C          9.41600      -15.83400       24.94200
H          9.75100      -15.63700       23.92200
C          9.97200      -14.73500       25.87400
H          9.62500      -13.76700       25.50800
H          9.54100      -14.87900       26.86700
C         11.50100      -14.65700       26.04500
H         11.71200      -13.82700       26.72100
H         11.86500      -15.56800       26.52100
C         12.27600      -14.42800       24.74000
H         12.21600      -15.33000       24.13000
H         11.81600      -13.60300       24.19100
N         13.68900      -14.09400       25.01500
H         13.92900      -13.86700       25.96400
C         14.66500      -14.00000       24.12800
N         14.51600      -14.29000       22.87400
H         13.73200      -14.86600       22.59500
H         15.34200      -14.27900       22.28800
N         15.86000      -13.63100       24.47900
H         16.10400      -13.49800       25.44000
H         16.59000      -13.74800       23.78600
C          9.98100      -17.21700       25.30300
O         11.06200      -17.55800       24.83100
N          9.25100      -18.01600       26.08000
H          8.36800      -17.65900       26.40700
C          9.59100      -19.39500       26.44800
H         10.51600      -19.38100       27.02500
C          8.47200      -19.95200       27.34200
H          7.60900      -20.19100       26.71800
H          8.81400      -20.88500       27.79200
C          8.02800      -19.00800       28.44700
C          8.86800      -18.77100       29.55100
H          9.81300      -19.28900       29.63500
C          8.47600      -17.86500       30.55300
H          9.11600      -17.69300       31.40800
C          7.24400      -17.19500       30.45400
H          6.93700      -16.51000       31.23200
C          6.40200      -17.43100       29.35200
H          5.44700      -16.92900       29.28800
C          6.79300      -18.33600       28.34900
H          6.13600      -18.52400       27.51200
C          9.82200      -20.32800       25.24500
O         10.66600      -21.21200       25.33700
N          9.14500      -20.11300       24.10700
H          8.46600      -19.35900       24.06700
C          9.40600      -20.87300       22.87400
H          9.32000      -21.94000       23.08400
C          8.36600      -20.48400       21.80900
H          8.46500      -21.17600       20.97100
H          7.37300      -20.63200       22.23500
S          8.44600      -18.78600       21.13600
C         10.79900      -20.61400       22.28600
O         11.32700      -21.41900       21.52400
N         11.34200      -19.43000       22.56300
H         10.89900      -18.87200       23.28000
C         12.24900      -18.74000       21.66300
H         12.79700      -19.47100       21.06500
C         11.38600      -17.88000       20.71600
H         10.95100      -17.05800       21.28500
H         12.05000      -17.44400       19.96900
S         10.02600      -18.70700       19.82300
C         13.27500      -17.90700       22.46100
O         13.33500      -16.68700       22.28300
N         14.06800      -18.51100       23.37400
C         14.15200      -19.94900       23.61900
H         14.32700      -20.50600       22.69800
H         13.23600      -20.29600       24.09900
C         15.31400      -20.14100       24.59000
H         16.25400      -20.20200       24.03900
H         15.17400      -21.02100       25.21800
C         15.26500      -18.84800       25.40000
H         16.21500      -18.64500       25.89600
H         14.46300      -18.91200       26.13700
C         14.90600      -17.79200       24.34500
H         14.31500      -17.00900       24.82100
C         16.17500      -17.13600       23.76500
O         16.90800      -16.48000       24.50000
N         16.45100      -17.30300       22.46700
H         15.78200      -17.81900       21.91900
C         17.70200      -16.89700       21.79500
H         18.51800      -17.43000       22.28400
C         17.69400      -17.33000       20.31400
H         18.64200      -17.02700       19.86700
C         17.59300      -18.85500       20.18500
H         17.70300      -19.14100       19.13800
H         18.39200      -19.33000       20.75600
H         16.63000      -19.21600       20.54600
C         16.56000      -16.68800       19.50200
H         16.62900      -17.01100       18.46200
H         15.58700      -16.98000       19.89500
H         16.64700      -15.60200       19.52500
C         18.03200      -15.39800       21.91100
O         17.15800      -14.54400       22.06200
N         19.30500      -15.04100       21.82500
H         19.53700      -14.06200       21.88200
H         20.02400      -15.73600       21.70400
