103
1 1
H          9.02000      -19.57500       27.09800
C          8.03500      -19.51200       26.63700
H          7.52800      -18.61400       26.98600
H          7.45500      -20.39300       26.90400
C          8.19800      -19.45100       25.13600
O          9.31600      -19.46900       24.63400
N          7.08200      -19.36300       24.40600
H          6.20700      -19.33700       24.90800
C          7.03500      -19.32400       22.92900
H          7.77400      -20.04100       22.56600
C          5.64200      -19.80400       22.45500
H          5.30000      -20.56600       23.15700
H          4.92300      -18.98400       22.50900
C          5.57900      -20.46300       21.06000
H          6.34800      -21.23300       20.98100
H          4.61500      -20.97100       21.00300
C          5.65300      -19.52500       19.84300
H          5.07000      -19.96600       19.03300
H          5.17700      -18.57500       20.09300
N          7.03500      -19.28200       19.38100
H          7.54500      -18.53900       19.84600
C          7.66300      -19.83000       18.35400
N          8.87300      -19.45500       18.07400
H          9.30100      -18.74200       18.65200
H          9.41100      -19.84500       17.31000
N          7.11600      -20.73500       17.59600
H          6.18200      -21.03800       17.77500
H          7.59900      -21.01400       16.74600
C          7.46800      -17.95500       22.37200
O          6.71400      -17.29100       21.66700
N          8.69900      -17.53800       22.67000
H          9.25000      -18.13500       23.27800
C          9.34700      -16.35700       22.08600
H          8.79100      -15.47100       22.39200
C         10.77200      -16.25500       22.65100
H         10.71300      -16.08100       23.72700
H         11.27600      -17.21200       22.50300
C         11.61700      -15.16000       22.03000
C         12.69400      -15.49200       21.18700
H         12.95100      -16.52800       21.00500
C         13.46100      -14.47800       20.59100
H         14.30500      -14.74000       19.96600
C         13.14700      -13.12800       20.82400
H         13.74100      -12.34800       20.36900
C         12.06900      -12.79300       21.66300
H         11.83900      -11.75300       21.85200
C         11.30800      -13.80700       22.27000
H         10.49400      -13.54200       22.93000
C          9.33500      -16.40500       20.54300
O          9.24400      -17.48600       19.95900
N          9.40100      -15.25500       19.86400
H          9.56600      -14.40000       20.37500
C          9.12800      -15.15100       18.42200
H          8.10200      -15.47200       18.24000
C          9.26000      -13.68100       17.99600
H          8.89100      -13.58500       16.97400
H          8.60800      -13.08000       18.63100
S         10.93100      -12.95100       18.05000
C         10.04300      -16.00100       17.52900
O          9.62400      -16.44200       16.46100
N         11.29900      -16.18100       17.93800
H         11.54500      -15.84900       18.85900
C         12.39700      -16.31100       16.99300
H         12.00900      -16.59700       16.02000
C         13.02500      -14.91600       16.83500
H         13.50400      -14.63200       17.77100
H         13.80800      -14.98500       16.08000
S         11.90200      -13.56400       16.34300
C         13.42700      -17.34700       17.48600
O         13.94600      -17.17000       18.58800
N         13.76700      -18.39200       16.70100
C         14.86400      -19.29200       17.02400
H         14.49400      -20.10100       17.65600
H         15.68100      -18.77000       17.52500
C         15.33500      -19.84700       15.68400
H         15.82600      -20.81400       15.79600
H         15.99800      -19.12800       15.20000
C         14.02600      -19.95500       14.90400
H         13.52900      -20.88900       15.17500
H         14.19600      -19.91500       13.82800
C         13.20300      -18.75500       15.39500
H         13.36000      -17.92300       14.70800
C         11.70600      -19.10800       15.43600
O         11.19700      -19.62000       16.43300
N         10.99300      -18.86000       14.33300
H         11.44800      -18.41400       13.55100
C          9.54000      -19.10100       14.24700
H          9.06200      -18.61200       15.09800
C          8.94600      -18.47700       12.96700
H          9.42100      -18.93300       12.09700
C          7.43200      -18.70100       12.86400
H          7.20500      -19.76400       12.78600
H          6.93200      -18.28900       13.74100
H          7.04400      -18.21000       11.97000
C          9.19800      -16.96300       12.91700
H          8.74500      -16.54000       12.02000
H          8.76300      -16.48300       13.79400
H         10.26600      -16.74900       12.88900
C          9.20900      -20.59700       14.34700
O          8.34600      -20.99200       15.12300
N          9.92000      -21.45900       13.63200
H         10.64400      -21.13200       13.01600
H          9.71400      -22.44200       13.72200
