104
0 1
H         17.80900      -21.38500      -14.30300
C         17.77600      -21.03100      -15.33300
H         17.57800      -21.86900      -15.99900
H         18.72600      -20.57300      -15.59900
C         16.67500      -20.00900      -15.47600
O         16.92700      -18.87100      -15.85800
N         15.44500      -20.42800      -15.18100
H         15.35100      -21.35100      -14.78800
C         14.22800      -19.63100      -15.36900
H         14.16200      -19.35500      -16.42200
C         12.98200      -20.46100      -14.99800
H         13.14300      -20.94700      -14.03400
H         12.15200      -19.76300      -14.87100
C         12.54000      -21.50800      -16.04100
H         12.42300      -21.01700      -17.00700
C         13.51100      -22.68100      -16.19900
H         13.71900      -23.13100      -15.22800
H         13.07400      -23.43400      -16.85400
H         14.43700      -22.34100      -16.65900
C         11.18300      -22.08200      -15.63000
H         10.44900      -21.28000      -15.54900
H         10.83700      -22.79000      -16.38300
H         11.26600      -22.59100      -14.67000
C         14.26700      -18.32800      -14.55200
O         14.73300      -18.31100      -13.41200
N         13.75400      -17.24700      -15.14100
H         13.40000      -17.33800      -16.07800
C         13.68600      -15.92000      -14.52900
H         14.52200      -15.79400      -13.86300
C         13.81000      -14.85800      -15.63200
H         12.85600      -14.81200      -16.15800
H         13.98200      -13.88100      -15.17500
S         15.10400      -15.15100      -16.88600
C         12.41900      -15.75400      -13.67500
O         11.32800      -16.11000      -14.12000
N         12.54300      -15.19300      -12.46500
H         13.48100      -14.99800      -12.12900
C         11.43100      -14.99500      -11.50600
H         10.84500      -15.91400      -11.48900
C         11.95200      -14.77100      -10.07100
H         11.09100      -14.71200       -9.40400
C         12.85100      -15.89500       -9.55800
H         13.11500      -15.69900       -8.51900
H         12.32100      -16.84600       -9.61600
H         13.76300      -15.95800      -10.14500
O         12.65500      -13.55200       -9.98400
H         11.97300      -12.87400      -10.11100
C         10.45700      -13.86800      -11.91000
O         10.26400      -12.89600      -11.18500
N          9.85500      -13.93600      -13.08700
H          9.22700      -13.19700      -13.35600
H         10.04000      -14.72600      -13.69400
H         13.15800      -10.74500      -13.59600
C         13.25200      -11.32000      -12.67500
H         12.47300      -12.07500      -12.63500
H         13.16400      -10.65200      -11.82000
C         14.60100      -11.99500      -12.65300
O         15.29600      -12.00700      -13.66100
N         14.97400      -12.57100      -11.51200
H         14.30500      -12.61500      -10.75200
C         16.25000      -13.26500      -11.33600
H         17.04900      -12.61700      -11.70000
C         16.47300      -13.51900       -9.83100
H         16.56200      -12.55700       -9.32600
H         15.59300      -14.02700       -9.43200
C         17.70900      -14.38000       -9.49400
H         17.60400      -15.37000       -9.93900
C         19.01100      -13.75300       -9.99500
H         19.02200      -13.72300      -11.08400
H         19.12000      -12.74400       -9.59900
H         19.85700      -14.35900       -9.67100
C         17.81200      -14.55300       -7.97900
H         18.66100      -15.19300       -7.73900
H         17.94300      -13.58400       -7.49700
H         16.90400      -15.02400       -7.60200
C         16.27200      -14.56400      -12.15200
O         15.59700      -15.52600      -11.79600
N         17.04100      -14.59700      -13.23800
H         17.48300      -13.74200      -13.53900
C         17.28100      -15.80600      -14.02900
H         16.35000      -16.32700      -14.21100
C         17.82000      -15.40700      -15.40200
H         18.82000      -14.99100      -15.27400
H         17.90100      -16.30000      -16.02400
S         16.79500      -14.17700      -16.26900
C         18.18200      -16.77600      -13.25500
O         19.36200      -16.50800      -13.03500
N         17.60000      -17.89000      -12.80900
H         16.62200      -18.01200      -13.04900
C         18.17500      -18.87300      -11.86900
H         18.66100      -18.31100      -11.07200
C         17.05400      -19.70600      -11.21100
H         17.49800      -20.49700      -10.60700
C         16.17600      -18.85900      -10.28800
H         16.79100      -18.41200       -9.50700
H         15.67800      -18.06700      -10.84600
H         15.42400      -19.49500       -9.82100
O         16.19900      -20.28800      -12.17000
H         15.61500      -19.58700      -12.50500
C         19.28200      -19.76900      -12.45800
O         19.49000      -20.89900      -12.03200
N         20.03400      -19.30100      -13.44400
H         20.76300      -19.88700      -13.81300
H         19.91600      -18.34300      -13.74300
