104
0 1
H         11.63500      -19.45500      -15.11900
C         10.65500      -19.71300      -15.51700
H         10.00200      -20.04500      -14.71400
H         10.76300      -20.50200      -16.26000
C         10.05600      -18.49600      -16.17900
O          9.72600      -18.52800      -17.35900
N          9.91200      -17.41000      -15.42200
H         10.29800      -17.43000      -14.48800
C          9.48200      -16.11900      -15.96500
H          8.65400      -16.28300      -16.65600
C          9.00600      -15.18900      -14.83100
H          9.84700      -14.99700      -14.16200
H          8.71200      -14.23400      -15.27100
C          7.83300      -15.72600      -13.98900
H          8.12000      -16.66700      -13.51900
C          7.50000      -14.72300      -12.88400
H          6.69400      -15.11500      -12.26300
H          8.37700      -14.56400      -12.25600
H          7.18900      -13.77300      -13.31800
C          6.57100      -15.95300      -14.82300
H          6.28800      -15.03500      -15.33800
H          6.74300      -16.74400      -15.55300
H          5.75300      -16.26600      -14.17400
C         10.63900      -15.48900      -16.75100
O         11.69100      -15.20600      -16.17100
N         10.45700      -15.27000      -18.05400
H          9.59800      -15.57600      -18.48800
C         11.49500      -14.72000      -18.92400
H         12.08800      -14.03000      -18.33800
C         12.40200      -15.86900      -19.38900
H         12.68500      -16.47400      -18.52600
H         11.82200      -16.51000      -20.05500
S         13.91900      -15.38300      -20.25300
C         10.91700      -13.92600      -20.10600
O         10.02800      -14.40400      -20.80900
N         11.42800      -12.71500      -20.34100
H         12.14700      -12.37300      -19.70900
C         11.02800      -11.80600      -21.43000
H          9.95200      -11.89800      -21.57300
C         11.31800      -10.33400      -21.06600
H         10.98700       -9.70300      -21.89100
C         10.58500       -9.88000      -19.80400
H         10.90700      -10.46500      -18.94400
H         10.80100       -8.82700      -19.61900
H          9.51100      -10.00200      -19.94100
O         12.69700      -10.11600      -20.86500
H         13.11500      -10.33100      -21.71200
C         11.68300      -12.19600      -22.76400
O         12.39600      -11.41100      -23.38100
N         11.49600      -13.43000      -23.21100
H         10.92300      -14.07000      -22.67700
H         11.94100      -13.70700      -24.07000
H         14.61700       -6.23200      -19.47200
C         14.18800       -7.22900      -19.55300
H         14.73200       -7.80600      -20.29900
H         13.14100       -7.16000      -19.83900
C         14.29300       -7.92300      -18.21600
O         14.82000       -7.35600      -17.26700
N         13.79100       -9.15300      -18.14500
H         13.38300       -9.54700      -18.98800
C         13.78700       -9.99100      -16.94000
H         14.67300       -9.76300      -16.34600
C         12.52900       -9.63600      -16.11100
H         12.62300       -8.58700      -15.82600
H         11.65500       -9.70300      -16.76100
C         12.21300      -10.42100      -14.82000
H         11.45800       -9.84100      -14.29000
C         11.59700      -11.80400      -15.05600
H         10.76800      -11.72300      -15.75800
H         12.32800      -12.50600      -15.44500
H         11.21700      -12.19500      -14.11200
C         13.41500      -10.54900      -13.88300
H         13.85400       -9.56400      -13.71700
H         13.08500      -10.94900      -12.92400
H         14.16700      -11.21600      -14.29700
C         13.84600      -11.46300      -17.35700
O         13.10500      -11.87500      -18.24400
N         14.69500      -12.27300      -16.72200
H         15.28700      -11.90400      -15.99200
C         14.73100      -13.71700      -16.95400
H         13.73400      -14.04200      -17.22600
C         15.65800      -14.02300      -18.13500
H         15.50500      -13.27400      -18.91400
H         16.69000      -13.94200      -17.79300
S         15.42300      -15.65200      -18.89100
C         15.10100      -14.49100      -15.68300
O         15.90200      -14.01900      -14.87600
N         14.49500      -15.66400      -15.49200
H         13.85000      -15.98800      -16.20300
C         14.60000      -16.49500      -14.28300
H         15.56400      -16.31100      -13.80900
C         13.49400      -16.16200      -13.26100
H         13.65500      -16.77900      -12.37600
C         13.46400      -14.70200      -12.81000
H         14.44600      -14.41200      -12.43900
H         13.18500      -14.05200      -13.63800
H         12.73300      -14.58700      -12.01000
O         12.22000      -16.46200      -13.77600
H         12.11300      -15.94400      -14.59400
C         14.53000      -17.98200      -14.64400
O         14.01800      -18.36000      -15.69300
N         15.03900      -18.86100      -13.79100
H         14.99300      -19.83600      -14.03700
H         15.46300      -18.55600      -12.93100
