89
1 1
H         11.13700       -2.70400       27.85900
C         10.31900       -2.93800       28.53900
H         10.71300       -3.45900       29.41200
H          9.59200       -3.57500       28.03900
C          9.64900       -1.66100       28.98900
O          9.62600       -1.37200       30.17800
N          9.11000       -0.90100       28.02700
H          9.20300       -1.26700       27.09100
C          8.39600        0.39400       28.16100
H          8.18400        0.72700       27.14600
C          7.02900        0.16500       28.85000
H          6.40500       -0.45200       28.20200
H          7.18700       -0.38800       29.77800
C          6.25500        1.44600       29.21600
H          5.33900        1.16000       29.73400
H          6.85000        2.01700       29.92800
C          5.87300        2.33200       28.01600
H          6.66200        2.34700       27.26500
H          4.97800        1.91700       27.55000
C          5.59000        3.77300       28.45800
H          5.08500        4.29700       27.64100
H          4.91500        3.75800       29.31800
N          6.83600        4.50100       28.79800
H          6.63700        5.45700       29.08500
H          7.38200        4.04700       29.52600
H          7.44800        4.60200       27.99100
C          9.18700        1.56300       28.77900
O          9.09600        2.66400       28.23700
N          9.90800        1.35000       29.88300
H          9.88000        0.40300       30.24300
C         10.69200        2.33100       30.64900
H         10.90500        1.85800       31.60800
C         12.07600        2.53500       29.97700
H         12.62700        3.32400       30.48700
H         12.63500        1.61600       30.16400
S         12.20900        2.81500       28.17900
C          9.93300        3.62600       31.03100
O          8.74300        3.79600       30.75300
N         10.62600        4.57800       31.66900
H         11.57700        4.38200       31.94300
C         10.14100        5.96200       31.85100
H          9.12100        5.92800       32.23800
C         11.03000        6.69300       32.87900
H         12.03800        6.77100       32.46900
H         10.64800        7.70800       33.00400
C         11.11500        6.03600       34.27100
H         11.53300        5.03400       34.17500
C         12.04300        6.85500       35.16800
H         12.13600        6.37300       36.14200
H         13.03300        6.92000       34.71700
H         11.64400        7.86100       35.30500
C          9.75000        5.93600       34.95600
H          9.29100        6.92300       35.02300
H          9.09500        5.26800       34.39900
H          9.87200        5.53300       35.96100
C         10.06700        6.74800       30.52000
O          9.72100        7.92400       30.49300
N         10.40400        6.08800       29.41100
H         10.67200        5.12500       29.51300
C         10.44300        6.60500       28.05400
H         11.09100        7.48200       28.02500
C         11.06900        5.49900       27.19200
H         10.35100        4.68500       27.07800
H         11.26600        5.89900       26.19600
S         12.61200        4.79400       27.85200
C          9.03200        7.00200       27.58200
O          8.26900        6.15000       27.12200
N          8.69400        8.28900       27.73800
H          9.39000        8.86600       28.19000
C          7.34300        8.87700       27.64500
H          7.47300        9.94300       27.82400
C          6.73900        8.75100       26.22000
H          6.52900        7.69700       26.03200
C          5.39200        9.49000       26.11400
H          5.02900        9.45100       25.08600
H          4.64400        9.01000       26.74600
H          5.49800       10.53400       26.41100
C          7.69400        9.22600       25.09700
H          8.57800        8.58900       25.08700
H          7.19600        9.08400       24.13700
C          8.15300       10.68900       25.18600
H          8.80900       10.90800       24.34300
H          7.29700       11.36100       25.14300
H          8.70700       10.85900       26.10900
C          6.39700        8.38400       28.76000
O          6.30200        7.19800       29.06800
N          5.65600        9.28900       29.38400
H          5.04000        8.98200       30.11900
H          5.72400       10.26300       29.13600
