89
1 1
H          7.92300        2.89100       24.64500
C          7.98200        3.49200       25.55100
H          8.76200        4.24400       25.44700
H          8.21400        2.84400       26.39500
C          6.65200        4.16500       25.79700
O          6.04200        3.94400       26.83400
N          6.22900        5.01400       24.85100
H          6.84900        5.11300       24.06000
C          4.91700        5.70000       24.74600
H          5.06600        6.52100       24.04300
C          3.86300        4.77400       24.09300
H          3.01200        5.39300       23.80100
H          4.27000        4.34800       23.17500
C          3.37100        3.62600       25.00100
H          3.96900        2.74100       24.77900
H          3.54100        3.86600       26.05000
C          1.87900        3.27900       24.81600
H          1.48400        3.71300       23.89600
H          1.80000        2.19500       24.72100
C          1.01300        3.69800       26.01900
H          0.01400        3.26700       25.90200
H          1.45700        3.26900       26.92300
N          0.89800        5.16600       26.19000
H          0.36700        5.62800       25.46100
H          0.41500        5.38600       27.05800
H          1.81000        5.61200       26.26800
C          4.34100        6.40100       25.99500
O          3.16400        6.74200       25.95300
N          5.11900        6.59000       27.06400
H          6.04900        6.21800       26.95900
C          4.69500        6.80800       28.46000
H          5.62200        6.81500       29.03400
C          4.04600        8.19100       28.70300
H          4.12500        8.41000       29.76900
H          4.60900        8.95700       28.17000
S          2.28800        8.33600       28.26100
C          3.83600        5.67400       29.06000
O          2.93900        5.12500       28.41400
N          4.02900        5.41900       30.36200
H          4.79400        5.88000       30.82800
C          3.08900        4.68500       31.22300
H          2.70500        3.84200       30.64800
C          3.86100        4.12700       32.43900
H          4.75300        3.61300       32.07600
H          4.18900        4.96700       33.05400
C          3.07700        3.14400       33.33500
H          2.18900        3.62400       33.74000
C          2.65000        1.88300       32.58000
H          3.51700        1.40600       32.12100
H          2.18500        1.18200       33.27400
H          1.91800        2.13100       31.81400
C          3.96100        2.71500       34.50600
H          4.85100        2.20100       34.14300
H          4.25800        3.59100       35.08300
H          3.40400        2.04600       35.16200
C          1.87900        5.58000       31.58200
O          1.59100        5.86700       32.73800
N          1.24000        6.11900       30.54800
H          1.53100        5.81000       29.62700
C          0.13000        7.07100       30.58300
H         -0.55600        6.77100       31.37700
C          0.69000        8.47000       30.93200
H         -0.11100        9.03400       31.41200
H          1.45900        8.34500       31.69600
S          1.37500        9.54000       29.62400
C         -0.62800        6.98800       29.23900
O         -0.40600        6.04400       28.47600
N         -1.49900        7.94700       28.90200
H         -1.66500        8.70400       29.54800
C         -2.18700        7.96500       27.59300
H         -2.67400        6.99800       27.45200
C         -3.29600        9.04800       27.55800
H         -2.84000       10.01500       27.77500
C         -3.94600        9.12500       26.16300
H         -3.20800        9.36200       25.39700
H         -4.42300        8.17500       25.91600
H         -4.69600        9.91500       26.13400
C         -4.36700        8.76000       28.63900
H         -4.87600        7.82300       28.40600
H         -3.88300        8.64300       29.60900
C         -5.41700        9.86700       28.80200
H         -6.05800        9.92100       27.92200
H         -6.04200        9.64400       29.66700
H         -4.92600       10.82700       28.95800
C         -1.16700        8.11000       26.44400
O         -0.98900        7.20200       25.63500
N         -0.42300        9.20700       26.39500
H          0.26900        9.28600       25.66700
H         -0.53800        9.93100       27.08400
