112
1 1
H         -7.25900       76.77400       25.41000
C         -7.40500       77.84100       25.56700
H         -7.01300       78.38800       24.71100
H         -6.88300       78.15500       26.47100
C         -8.87800       78.13400       25.71800
O         -9.67800       77.20100       25.74800
N         -9.20300       79.42200       25.83200
H         -8.42700       80.06800       25.88400
C        -10.51100       80.00200       26.17600
H        -10.33800       81.07800       26.22600
C        -11.52300       79.77300       25.03500
H        -11.04700       79.97700       24.07700
H        -11.84600       78.73200       25.04600
C        -12.74200       80.67600       25.14500
O        -12.74000       81.68500       25.83100
N        -13.82700       80.33800       24.49300
H        -14.61600       80.95300       24.59200
H        -13.84800       79.51800       23.91500
C        -11.03400       79.60700       27.57600
O        -10.73800       78.52900       28.09100
N        -11.82700       80.46800       28.21800
H        -12.14800       81.29100       27.72000
C        -12.37500       80.18400       29.54500
H        -11.57600       79.73200       30.12200
C        -12.74400       81.47500       30.28100
H        -12.87700       82.28600       29.56400
H        -13.68400       81.34300       30.81800
S        -11.44900       81.91700       31.47200
C        -13.50600       79.14600       29.48900
O        -14.64300       79.44200       29.13200
N        -13.15900       77.91000       29.85600
H        -12.19400       77.77700       30.14400
C        -14.04600       76.74400       29.93500
H        -14.81500       76.82600       29.16400
C        -13.20600       75.47900       29.68400
H        -12.36800       75.47800       30.38300
H        -13.81200       74.59400       29.88100
C        -12.69100       75.41000       28.23200
H        -13.52600       75.13200       27.58700
H        -12.34100       76.38700       27.90200
C        -11.55600       74.39300       28.03200
H        -11.89200       73.41700       28.38700
H        -11.35700       74.30400       26.96200
C        -10.24300       74.75600       28.74800
H        -10.42000       74.81700       29.82500
H         -9.52400       73.95200       28.57100
N         -9.67500       76.03600       28.26500
H        -10.24700       76.83500       28.53200
H         -8.74800       76.22400       28.63600
H         -9.62800       76.09300       27.25000
C        -14.74800       76.68900       31.29600
O        -14.14300       76.96400       32.32600
N        -16.01000       76.29600       31.32500
H        -16.49600       76.08600       30.47000
H        -16.47400       76.25700       32.21700
H         -7.92300       83.78900       35.43800
C         -8.60800       83.33200       34.72500
H         -8.50800       83.82700       33.76000
H         -9.63300       83.43300       35.08000
C         -8.26900       81.87000       34.56800
O         -7.97800       81.41800       33.46700
N         -8.34400       81.11500       35.66400
H         -8.61100       81.55900       36.52800
C         -7.99500       79.68300       35.71100
H         -6.93200       79.58100       35.49000
C         -8.24300       79.15600       37.13400
H         -7.87200       78.13100       37.19300
H         -7.65700       79.74700       37.84000
C         -9.70100       79.17000       37.56300
C        -10.23500       80.29300       38.22700
H         -9.60000       81.13000       38.48400
C        -11.59900       80.32500       38.57300
H        -12.02100       81.17700       39.08500
C        -12.43300       79.22900       38.26800
O        -13.74700       79.27100       38.60600
H        -14.18200       78.42500       38.49000
C        -11.89700       78.09800       37.61600
H        -12.53100       77.25500       37.38600
C        -10.53200       78.06900       37.26900
H        -10.12300       77.20000       36.77100
C         -8.75700       78.82700       34.68100
O         -8.24000       77.81500       34.21400
N         -9.95500       79.25800       34.27200
H        -10.32100       80.09300       34.70200
C        -10.76600       78.62700       33.23100
H        -10.96700       77.59900       33.53700
C        -12.11400       79.36100       33.16900
H        -12.65300       79.04500       32.27800
H        -12.70300       79.00800       34.01700
S        -12.13200       81.18300       33.25300
C        -10.08000       78.53400       31.85200
O        -10.48800       77.71000       31.02700
N         -9.03100       79.32500       31.58800
H         -8.73800       79.99500       32.29400
C         -8.19100       79.18200       30.39100
H         -8.81800       79.25900       29.50500
C         -7.14900       80.31500       30.34500
H         -6.55900       80.28500       31.26300
H         -6.46700       80.13700       29.51100
C         -7.75000       81.72600       30.19500
H         -8.46900       81.90600       30.99200
H         -6.94900       82.45600       30.31000
C         -8.43100       81.98800       28.85400
O         -8.26300       81.28400       27.87200
N         -9.23500       83.02400       28.75400
H         -9.61900       83.21600       27.84600
H         -9.38700       83.62700       29.54200
C         -7.49000       77.81000       30.33600
O         -7.36500       77.21600       29.26700
N         -7.09700       77.23600       31.46700
H         -6.64000       76.34000       31.42700
H         -7.28200       77.68000       32.35700
