112
1 1
H         -7.31300       74.15700       31.86100
C         -8.32200       74.54600       31.73300
H         -8.49300       75.35700       32.44000
H         -9.04800       73.75600       31.91000
C         -8.48200       75.07300       30.32800
O         -8.74100       76.25700       30.13600
N         -8.35300       74.19300       29.33700
H         -8.21600       73.22100       29.57200
C         -8.47700       74.54100       27.91800
H         -7.72000       75.29200       27.68600
C         -8.21300       73.28800       27.06500
H         -8.15000       73.57400       26.01500
H         -7.25700       72.84600       27.34500
C         -9.29500       72.23100       27.22800
O         -9.44200       71.61200       28.26800
N        -10.11300       72.01000       26.22700
H        -10.77200       71.26500       26.34100
H        -10.13900       72.63100       25.42600
C         -9.85500       75.13300       27.57200
O        -10.85300       74.82100       28.22100
N         -9.93300       75.94000       26.51200
H         -9.09100       76.18500       26.01500
C        -11.21600       76.35300       25.93500
H        -11.90000       76.59700       26.74900
C        -11.02600       77.63000       25.10900
H        -10.43100       77.39300       24.22600
H        -12.00400       77.98000       24.77300
S        -10.21000       78.99100       26.00000
C        -11.85600       75.19200       25.14600
O        -11.15800       74.26500       24.72000
N        -13.18800       75.19900       25.01200
H        -13.68400       76.02900       25.32900
C        -13.99900       74.01200       24.67100
H        -13.35700       73.27700       24.18400
C        -14.58000       73.37600       25.95700
H        -15.34500       74.03800       26.36700
H        -15.05300       72.42800       25.69700
C        -13.52000       73.12800       27.04300
H        -12.71800       72.52200       26.62500
H        -13.11900       74.09100       27.34600
C        -14.06400       72.43100       28.29800
H        -14.92900       72.97800       28.67800
H        -14.37900       71.42100       28.03400
C        -12.98900       72.35200       29.39600
H        -13.36200       71.71400       30.20200
H        -12.08300       71.89400       28.98500
N        -12.67300       73.69200       29.93900
H        -12.01500       73.66700       30.70900
H        -12.27000       74.29500       29.22300
H        -13.51300       74.15600       30.28100
C        -15.12400       74.35900       23.69100
O        -15.77600       75.38600       23.82500
N        -15.40100       73.49100       22.73300
H        -14.86200       72.64700       22.63700
H        -16.14700       73.71400       22.09400
H        -15.94800       74.23300       34.42900
C        -15.22000       73.70700       33.81300
H        -15.71300       72.88400       33.29700
H        -14.42100       73.31800       34.44200
C        -14.64100       74.65900       32.79600
O        -14.74500       74.41900       31.59700
N        -14.02000       75.73600       33.27100
H        -13.95100       75.83800       34.27100
C        -13.37800       76.76000       32.43300
H        -14.07600       76.99200       31.63100
C        -13.17000       78.03700       33.27600
H        -13.53400       77.88700       34.29300
H        -12.10300       78.25400       33.35100
C        -13.89400       79.23700       32.69900
C        -13.16900       80.36400       32.26300
H        -12.09900       80.41600       32.40800
C        -13.83000       81.40300       31.58400
H        -13.27400       82.24700       31.20200
C        -15.22400       81.33600       31.37600
O        -15.84300       82.28500       30.63200
H        -15.25100       82.58300       29.93500
C        -15.95900       80.24200       31.87400
H        -17.02700       80.21100       31.71800
C        -15.29300       79.19100       32.53100
H        -15.85700       78.33900       32.88500
C        -12.06900       76.26300       31.76900
O        -11.54200       75.21400       32.13700
N        -11.51000       76.92500       30.75000
H        -10.59700       76.58100       30.47000
C        -12.09100       77.96600       29.89100
H        -12.33400       78.83800       30.48700
C        -11.00000       78.38500       28.89200
H        -10.18600       78.86400       29.43900
H        -10.59000       77.48100       28.45800
S        -11.48400       79.47400       27.52300
C        -13.38100       77.49700       29.18300
O        -13.59800       76.29400       29.00600
N        -14.25700       78.43900       28.81700
H        -14.01500       79.41300       28.97400
C        -15.53000       78.16500       28.13800
H        -16.08300       77.46500       28.76500
C        -16.37300       79.45500       28.03900
H        -17.39200       79.15900       27.78700
H        -16.42000       79.93300       29.01700
C        -15.92800       80.49100       26.98400
H        -15.85900       80.01400       26.00700
H        -16.70000       81.25700       26.91200
C        -14.61100       81.20100       27.29100
O        -14.17100       81.31500       28.42400
N        -13.92900       81.72200       26.29700
H        -14.25100       81.64100       25.35000
H        -13.05600       82.15900       26.53600
C        -15.34900       77.49700       26.76200
O        -14.29800       77.58300       26.13000
N        -16.38500       76.84300       26.25800
H        -16.29000       76.42700       25.33900
H        -17.25300       76.78800       26.76300
