117
1 1
H        -52.60700       71.04800      -31.70900
C        -53.16300       71.22400      -32.62800
H        -54.22700       71.08000      -32.44300
H        -52.83200       70.52600      -33.39600
C        -52.92500       72.63900      -33.09900
O        -53.87100       73.41800      -33.21800
N        -51.66100       72.97700      -33.37400
H        -50.95500       72.25500      -33.30200
C        -51.22500       74.28700      -33.88900
H        -52.08300       74.77800      -34.33400
C        -50.64600       75.17500      -32.76400
H        -49.93100       74.58200      -32.19100
H        -50.08900       75.99600      -33.21700
C        -51.65100       75.80700      -31.78300
H        -52.24100       75.02700      -31.29900
H        -51.07500       76.31400      -31.00800
C        -52.58400       76.84900      -32.42700
H        -53.01500       77.46500      -31.63600
H        -51.99700       77.49200      -33.08600
N        -53.67600       76.19400      -33.16200
H        -53.89900       75.24600      -32.87300
C        -54.26800       76.56700      -34.27800
N        -55.05100       75.71300      -34.86500
H        -55.13200       74.78100      -34.48700
H        -55.54600       75.95700      -35.72100
N        -54.08000       77.72900      -34.82900
H        -53.46400       78.41200      -34.40600
H        -54.57100       77.98400      -35.68200
C        -50.23100       74.16900      -35.04100
O        -49.52300       73.18100      -35.18900
N        -50.21900       75.22700      -35.84000
H        -50.81500       75.99900      -35.58700
C        -49.37300       75.47900      -36.99700
H        -48.37600       75.07300      -36.81600
C        -49.97900       74.77900      -38.22300
H        -49.37800       75.00600      -39.10500
H        -49.91300       73.70200      -38.05700
S        -51.71700       75.16900      -38.58500
C        -49.26600       77.00400      -37.16200
O        -50.11300       77.73900      -36.64300
N        -48.24400       77.48700      -37.87100
H        -47.63100       76.84600      -38.35200
C        -47.89700       78.91200      -37.95600
H        -48.74400       79.51100      -37.62500
C        -46.72500       79.22000      -37.01000
H        -45.88400       78.57200      -37.26300
H        -46.40200       80.24900      -37.17400
C        -47.02600       79.06400      -35.54900
C        -47.37800       80.07400      -34.72300
H        -47.46500       81.11200      -35.02700
N        -47.62200       79.57900      -33.45600
H        -47.87000       80.16300      -32.67100
C        -47.44200       78.21400      -33.40200
C        -47.56000       77.27400      -32.36800
H        -47.84400       77.58800      -31.37500
C        -47.27600       75.92400      -32.63600
H        -47.34200       75.18600      -31.84800
C        -46.88100       75.53400      -33.92900
H        -46.65000       74.49500      -34.12700
C        -46.75400       76.49000      -34.95600
H        -46.40700       76.18400      -35.93100
C        -47.04300       77.85400      -34.72500
C        -47.58800       79.34200      -39.39500
O        -47.36900       78.51100      -40.26800
N        -47.58500       80.64000      -39.66500
H        -47.77300       81.30600      -38.92700
H        -47.36400       80.93400      -40.60200
H        -59.72600       76.80000      -37.08500
C        -58.86200       76.95400      -36.44000
H        -58.79100       76.13200      -35.73000
H        -58.97000       77.89500      -35.90300
C        -57.61100       76.99800      -37.28300
O        -56.70300       76.19500      -37.07900
N        -57.55000       77.95000      -38.21000
H        -58.30800       78.61500      -38.26300
C        -56.42000       78.16500      -39.13400
H        -56.31500       77.28000      -39.76100
C        -56.69400       79.37300      -40.04600
H        -55.81500       79.56800      -40.66200
C        -57.88500       79.13800      -40.97500
H        -57.99900       79.99800      -41.63600
H        -57.71300       78.24900      -41.58100
H        -58.80200       79.01500      -40.39900
O        -56.97600       80.51800      -39.27500
H        -56.16300       80.82500      -38.86100
C        -55.08600       78.38200      -38.41200
O        -55.04800       78.72500      -37.22900
N        -53.97000       78.20200      -39.12300
H        -54.03700       77.90000      -40.08200
C        -52.63200       78.44500      -38.58200
H        -52.50000       77.80600      -37.70800
C        -51.57900       78.05500      -39.62700
H        -51.66500       78.73100      -40.47900
H        -50.58700       78.20100      -39.20300
S        -51.69500       76.35500      -40.24500
C        -52.43400       79.90400      -38.13100
O        -52.96600       80.83300      -38.73800
N        -51.62600       80.10600      -37.08800
H        -51.19300       79.29300      -36.66000
C        -51.21100       81.42200      -36.59400
H        -52.07300       82.09100      -36.59500
C        -50.72100       81.28600      -35.14100
H        -50.08400       80.40600      -35.05300
H        -50.12100       82.16100      -34.88700
C        -51.83700       81.18600      -34.12800
N        -52.57500       80.04000      -33.80400
C        -53.47400       80.43500      -32.88500
H        -54.21300       79.79100      -32.42500
N        -53.34000       81.74500      -32.62300
H        -53.90700       82.27700      -31.97500
C        -52.31500       82.23500      -33.39700
H        -51.95600       83.25600      -33.43600
C        -50.15800       82.04600      -37.52700
O        -48.95600       81.97700      -37.29000
N        -50.59300       82.62700      -38.63500
H        -49.92700       83.05000      -39.25900
H        -51.57800       82.59100      -38.86100
