117
1 1
H        -54.54600       69.59700      -39.08500
C        -54.35000       68.97600      -38.21200
H        -53.55300       68.26900      -38.43800
H        -55.25500       68.43100      -37.94500
C        -53.93400       69.85300      -37.05500
O        -54.59900       69.85900      -36.01900
N        -52.83600       70.59500      -37.23300
H        -52.40100       70.56300      -38.14600
C        -52.27500       71.56900      -36.27600
H        -53.03500       71.80200      -35.53700
C        -51.03000       70.99500      -35.56100
H        -50.33200       70.64200      -36.32400
H        -50.52900       71.80300      -35.02500
C        -51.25300       69.85200      -34.55100
H        -51.75100       69.01300      -35.03900
H        -50.26900       69.50800      -34.23200
C        -52.02800       70.26300      -33.28600
H        -51.78300       69.56400      -32.48300
H        -51.71600       71.26200      -32.98400
N        -53.47800       70.22400      -33.51400
H        -53.78000       69.84000      -34.40100
C        -54.44400       70.72800      -32.77700
N        -55.66600       70.64500      -33.21000
H        -55.82800       70.22300      -34.11300
H        -56.40300       71.06600      -32.66900
N        -54.25900       71.34300      -31.64700
H        -53.31400       71.58100      -31.35600
H        -55.03800       71.80700      -31.20600
C        -51.92300       72.89700      -36.96300
O        -51.76200       72.94400      -38.17700
N        -51.77300       73.95600      -36.17100
H        -51.96100       73.82100      -35.18500
C        -51.36500       75.30300      -36.57500
H        -50.92700       75.25800      -37.57400
C        -52.60600       76.21100      -36.62700
H        -52.36100       77.11700      -37.18300
H        -53.39600       75.69400      -37.17300
S        -53.23300       76.70800      -34.99500
C        -50.30600       75.86800      -35.60800
O        -50.20200       75.42900      -34.45800
N        -49.54800       76.87400      -36.05000
H        -49.68100       77.22200      -36.99100
C        -48.61900       77.63800      -35.20900
H        -49.06700       77.75800      -34.22300
C        -47.29900       76.86800      -35.04700
H        -47.51700       75.81500      -34.86000
H        -46.73100       76.92600      -35.97600
C        -46.45400       77.34900      -33.90800
C        -45.24200       77.94000      -34.00400
H        -44.71600       78.13300      -34.93200
N        -44.78200       78.25700      -32.73900
H        -43.88700       78.69200      -32.56400
C        -45.68000       77.88200      -31.76200
C        -45.67800       77.98700      -30.36300
H        -44.84200       78.43900      -29.85000
C        -46.77700       77.49200      -29.63900
H        -46.78900       77.56200      -28.56000
C        -47.85800       76.90100      -30.31900
H        -48.69600       76.51700      -29.75300
C        -47.84900       76.80200      -31.72400
H        -48.67900       76.34200      -32.23800
C        -46.76000       77.28900      -32.48000
C        -48.39300       79.04700      -35.78000
O        -48.76800       79.32800      -36.91300
N        -47.79800       79.95300      -35.01600
H        -47.45800       79.70000      -34.10200
H        -47.65700       80.87600      -35.39400
H        -60.84600       77.45300      -31.65600
C        -60.23600       77.17000      -32.51200
H        -60.07900       78.04100      -33.14800
H        -60.73800       76.39000      -33.08100
C        -58.89900       76.66400      -32.02900
O        -57.86400       77.22600      -32.36500
N        -58.90900       75.58600      -31.24800
H        -59.80200       75.17100      -31.01700
C        -57.72000       74.96700      -30.62800
H        -57.07800       75.76700      -30.26100
C        -58.13100       74.12400      -29.40800
H        -57.24700       73.64500      -28.98700
C        -58.78600       74.96400      -28.31100
H        -58.11100       75.76200      -28.00400
H        -59.72300       75.39500      -28.66400
H        -58.99500       74.32900      -27.45000
O        -59.05500       73.13500      -29.79900
H        -58.56000       72.45500      -30.26500
C        -56.87600       74.15300      -31.62600
O        -56.61100       72.95900      -31.43100
N        -56.45900       74.77900      -32.73000
H        -56.71300       75.75800      -32.84000
C        -55.56400       74.18000      -33.72600
H        -55.88700       73.15500      -33.89500
C        -55.71900       74.91300      -35.06700
H        -55.12700       74.38600      -35.81700
H        -56.76400       74.83700      -35.37000
S        -55.26400       76.67000      -35.13500
C        -54.09300       74.11100      -33.26900
O        -53.29000       73.43800      -33.90600
N        -53.72200       74.77900      -32.17800
H        -54.42900       75.33100      -31.70400
C        -52.33800       75.03500      -31.76200
H        -51.85800       75.61400      -32.55000
C        -52.36600       75.90600      -30.49400
H        -52.67200       75.29000      -29.64600
H        -51.36200       76.28100      -30.29300
C        -53.32500       77.07100      -30.59300
N        -54.71900       76.96600      -30.52100
C        -55.19300       78.19700      -30.76700
H        -56.24400       78.45800      -30.80000
N        -54.18100       79.05400      -30.98500
H        -54.28700       80.03500      -31.20600
C        -52.99400       78.36000      -30.88700
H        -51.99600       78.74700      -31.04100
C        -51.50500       73.76000      -31.54900
O        -51.96200       72.78100      -30.96100
N        -50.26600       73.74800      -32.01700
H        -49.69100       72.94100      -31.84700
H        -49.93800       74.51100      -32.59300
