107
1 1
H        -28.39500       61.35900       44.18800
C        -27.50400       61.66700       43.64500
H        -27.32200       60.97800       42.82100
H        -26.64600       61.66300       44.31600
C        -27.70200       63.06000       43.09600
O        -27.65300       63.25600       41.88200
N        -27.93200       64.02900       43.98800
H        -27.88700       63.78300       44.96800
C        -28.03200       65.46400       43.66800
H        -27.76300       65.59800       42.62200
C        -29.46100       66.01500       43.87100
H        -29.63800       66.11100       44.94300
H        -29.49300       67.02300       43.45400
C        -30.65200       65.23000       43.28800
H        -30.80100       64.33600       43.89400
H        -31.54300       65.84900       43.40800
C        -30.57600       64.78800       41.81900
H        -29.88900       63.95300       41.73900
H        -31.55700       64.40300       41.53600
N        -30.21000       65.86300       40.87600
H        -30.68000       66.75500       40.96300
C        -29.42200       65.75300       39.82100
N        -28.61200       64.75100       39.62300
H        -28.05400       64.72700       38.79200
H        -28.44300       64.09400       40.38100
N        -29.42600       66.69000       38.92300
H        -28.77300       66.66200       38.15100
H        -29.92700       67.54800       39.13500
C        -27.03800       66.29400       44.49400
O        -26.56900       65.84300       45.53500
N        -26.75800       67.51400       44.04200
H        -27.19700       67.78700       43.17200
C        -26.01800       68.55500       44.75100
H        -25.68400       68.15500       45.71000
C        -24.76600       68.93800       43.94300
H        -24.12800       69.57100       44.56100
H        -24.20700       68.02700       43.72200
S        -25.08600       69.81700       42.38500
C        -26.93500       69.76100       45.03600
O        -27.76900       70.14200       44.20900
N        -26.79000       70.35200       46.22300
H        -26.09200       69.99300       46.86100
C        -27.62000       71.44400       46.74400
H        -27.74500       72.19900       45.96800
C        -29.01700       70.92100       47.15000
H        -29.55100       71.72900       47.65100
H        -29.58300       70.66900       46.25300
C        -29.00800       69.69900       48.08500
H        -28.17300       69.78300       48.78100
H        -29.92900       69.70800       48.66900
S        -28.92000       68.09800       47.22900
C        -28.51800       67.01400       48.62400
H        -29.31500       67.05800       49.36600
H        -28.41100       65.99000       48.26700
H        -27.58000       67.33400       49.07800
C        -26.91400       72.10300       47.94000
O        -26.04500       71.50500       48.56300
N        -27.27400       73.33200       48.28700
H        -27.98900       73.82200       47.77600
H        -26.80800       73.75600       49.07300
H        -24.07000       71.78900       37.37700
C        -25.00600       71.95100       36.84400
H        -24.79600       72.28500       35.82900
H        -25.59200       72.71300       37.35700
C        -25.79000       70.66300       36.79700
O        -26.86800       70.57200       37.37600
N        -25.23700       69.64400       36.14300
H        -24.31100       69.77400       35.76200
C        -25.87900       68.33300       35.95600
H        -26.82100       68.49500       35.42800
C        -24.97700       67.45200       35.06400
H        -25.50500       66.52200       34.85500
H        -24.80700       67.95600       34.11200
C        -23.62200       67.10500       35.66900
O        -23.17500       67.67600       36.64700
N        -22.92200       66.15100       35.10500
H        -22.02600       65.95300       35.51600
H        -23.25800       65.67200       34.28900
C        -26.24000       67.61200       37.27400
O        -27.16600       66.79800       37.29700
N        -25.55300       67.91500       38.37900
H        -24.73600       68.50300       38.27900
C        -25.87600       67.39500       39.70700
H        -26.19200       66.35700       39.59500
C        -24.60400       67.37700       40.57000
H        -24.82800       66.85300       41.50000
H        -23.85100       66.78900       40.04300
S        -23.85000       68.97500       40.99700
C        -27.03100       68.12700       40.41600
O        -27.52900       67.60200       41.40400
N        -27.47800       69.30600       39.97200
H        -27.10200       69.68000       39.10900
C        -28.36000       70.18100       40.77900
H        -27.83600       70.39000       41.71000
C        -28.60000       71.54100       40.10800
H        -29.36400       72.07500       40.67500
C        -27.34200       72.40800       40.09900
H        -27.54200       73.33300       39.55700
H        -27.06500       72.65600       41.12400
H        -26.51200       71.88400       39.62800
O        -29.06000       71.39500       38.78700
H        -28.30800       71.14800       38.22400
C        -29.70300       69.55200       41.18300
O        -30.34100       68.80600       40.44000
N        -30.15600       69.82400       42.39900
H        -31.04700       69.45100       42.68200
H        -29.57700       70.34200       43.04800
