107
1 1
H        -19.94400       59.57800       44.44400
C        -20.55500       59.74500       43.55900
H        -20.94800       58.79400       43.20100
H        -19.95300       60.20800       42.77900
C        -21.70800       60.65300       43.91100
O        -22.86300       60.25900       43.80500
N        -21.40400       61.89400       44.29900
H        -20.41900       62.14000       44.28600
C        -22.37400       62.95100       44.65700
H        -23.15300       62.49600       45.27200
C        -21.64200       64.02300       45.48700
H        -20.95200       63.54300       46.18400
H        -21.04800       64.63100       44.80500
C        -22.60000       64.91100       46.30200
H        -23.60700       64.88000       45.88300
H        -22.65200       64.51700       47.31800
C        -22.13300       66.37200       46.35600
H        -22.65200       66.86400       47.18000
H        -21.06400       66.40800       46.57000
N        -22.46500       67.09000       45.10800
H        -23.44300       67.15500       44.87600
C        -21.63900       67.62600       44.22800
N        -22.10900       68.30900       43.22900
H        -21.43700       68.75100       42.61400
H        -23.10200       68.42400       43.11600
N        -20.34600       67.52900       44.29000
H        -19.91000       66.91100       44.96600
H        -19.76100       67.96200       43.58600
C        -23.07500       63.55100       43.42200
O        -23.07300       64.76600       43.21900
N        -23.53500       62.70300       42.50900
H        -23.52500       61.71400       42.73400
C        -23.98800       63.12000       41.18600
H        -23.27300       63.84300       40.79900
C        -23.96600       61.92100       40.23800
H        -24.65200       61.16300       40.62000
H        -24.33100       62.23700       39.26000
S        -22.33300       61.15400       40.00800
C        -25.35800       63.81700       41.23300
O        -26.23200       63.45600       42.01800
N        -25.53400       64.83700       40.39300
H        -24.75100       65.09800       39.80200
C        -26.69100       65.73800       40.38000
H        -27.53300       65.25200       40.87500
C        -26.35300       67.03400       41.14300
H        -25.52400       67.53300       40.63600
H        -27.21900       67.69500       41.11200
C        -25.95900       66.80500       42.61100
H        -26.80800       66.37600       43.14500
H        -25.14800       66.08100       42.64400
S        -25.37700       68.27800       43.49900
C        -26.92700       69.20700       43.66000
H        -26.74800       70.11700       44.23400
H        -27.30500       69.47700       42.67400
H        -27.66900       68.59800       44.17900
C        -27.10600       66.06100       38.93800
O        -26.27100       66.14100       38.04100
N        -28.39000       66.28400       38.69300
H        -28.66400       66.49500       37.74600
H        -29.07300       66.20900       39.42900
H        -17.32100       69.65300       40.13300
C        -18.21100       70.17400       40.48300
H        -18.52300       70.90700       39.74000
H        -17.99400       70.68100       41.42200
C        -19.32000       69.17300       40.70000
O        -19.80100       69.01300       41.82000
N        -19.74000       68.49700       39.63400
H        -19.26600       68.64900       38.75800
C        -20.67600       67.37100       39.72200
H        -21.45200       67.63500       40.44300
C        -21.34600       67.15600       38.34900
H        -21.47600       68.12100       37.85900
H        -20.71600       66.53100       37.71500
C        -22.72400       66.52400       38.46500
O        -23.10500       65.99600       39.49800
N        -23.52700       66.60400       37.43400
H        -24.48600       66.28300       37.55600
H        -23.23400       67.03000       36.57500
C        -19.96600       66.10300       40.24400
O        -18.75800       65.96100       40.07100
N        -20.70100       65.18500       40.87700
H        -21.69900       65.35900       40.92800
C        -20.23100       63.89400       41.41300
H        -21.08200       63.42900       41.89100
C        -19.86000       62.95600       40.25600
H        -19.03300       63.40200       39.70100
H        -19.49900       62.01400       40.67100
S        -21.18700       62.56800       39.07500
C        -19.13600       63.92700       42.51000
O        -18.95600       62.92700       43.20400
N        -18.42700       65.03900       42.71800
H        -18.56900       65.81300       42.08200
C        -17.32800       65.16700       43.69200
H        -16.62700       64.35300       43.51100
C        -16.56800       66.49000       43.49100
H        -15.85500       66.61400       44.30700
C        -15.79500       66.52400       42.17400
H        -15.21900       67.44700       42.10700
H        -15.10600       65.68000       42.13000
H        -16.47900       66.46800       41.32700
O        -17.44900       67.59100       43.48300
H        -16.91400       68.38700       43.40900
C        -17.78800       65.05200       45.15300
O        -18.80600       65.60100       45.56500
N        -17.02100       64.36300       45.98800
H        -16.19400       63.89400       45.65800
H        -17.31100       64.28800       46.95000
