100
-2 1
H         33.92400       71.03300       74.92200
C         33.00800       71.12200       75.50100
H         32.37400       71.90400       75.08900
H         33.24700       71.34200       76.54000
C         32.26500       69.80900       75.44900
O         31.12800       69.76600       74.99400
N         32.93300       68.75200       75.89400
H         33.87700       68.87700       76.24200
C         32.38000       67.40900       76.09200
H         31.52100       67.26500       75.43600
C         33.46500       66.39800       75.69400
H         33.02800       65.40000       75.65400
H         33.82700       66.63200       74.69100
C         34.63900       66.41900       76.67300
O         35.34900       67.44600       76.73700
O         34.80500       65.40400       77.38300
C         31.90400       67.19700       77.55100
O         31.75700       68.15200       78.31700
N         31.63600       65.94800       77.94800
H         31.84300       65.17400       77.32400
C         31.13100       65.61000       79.28000
H         30.58000       66.46300       79.67500
C         30.15300       64.43500       79.16300
H         30.71800       63.54800       78.89400
H         29.73400       64.26100       80.15400
S         28.76300       64.62700       78.00600
C         32.22700       65.26300       80.31000
O         31.92100       65.22100       81.50400
N         33.46400       64.96700       79.88700
H         33.66100       65.01500       78.88800
C         34.57100       64.54000       80.76100
H         34.21000       64.44700       81.78600
C         35.08400       63.15500       80.30400
H         35.09500       63.10100       79.21400
H         36.11700       63.06700       80.64200
C         34.31100       61.95300       80.88500
H         34.16400       62.11100       81.95400
C         32.94700       61.70700       80.23900
H         32.28600       62.54400       80.44500
H         33.06500       61.59300       79.16200
H         32.49600       60.80300       80.64600
C         35.13300       60.67200       80.71800
H         36.10000       60.78500       81.20600
H         34.60500       59.83200       81.16700
H         35.28600       60.46400       79.65800
C         35.72400       65.56300       80.82200
O         36.43500       65.63000       81.82300
N         35.93500       66.37800       79.79900
H         36.68000       67.04700       79.84500
H         35.40800       66.25500       78.93900
H         36.98500       64.55500       76.00100
C         36.74100       64.44100       74.94500
H         37.64900       64.28600       74.36900
H         36.22600       65.33300       74.59900
C         35.83100       63.24900       74.76900
O         36.00900       62.49400       73.81900
N         34.87300       63.08000       75.67600
H         34.78200       63.78000       76.41400
C         33.94100       61.94400       75.70200
H         33.72900       61.64700       74.67300
C         34.62100       60.75100       76.40800
H         35.56300       60.52500       75.90500
H         34.84600       61.03500       77.43600
C         33.76100       59.48200       76.40400
O         33.72800       58.77900       77.43500
O         33.02500       59.25900       75.41400
C         32.58900       62.28800       76.37300
O         32.47500       63.24600       77.13700
N         31.56800       61.46500       76.11500
H         31.79200       60.67700       75.51200
C         30.29300       61.41800       76.84100
H         30.45000       61.84000       77.82900
C         29.24500       62.27900       76.11300
H         29.22200       61.97100       75.06800
H         28.26300       62.07200       76.53900
S         29.48700       64.07800       76.17300
C         29.77400       59.98300       77.10400
O         28.65000       59.82700       77.58300
N         30.54900       58.93200       76.80100
H         31.47500       59.09700       76.40900
C         30.21800       57.53500       77.10800
H         29.14100       57.40200       77.00700
C         30.92900       56.64900       76.06600
H         30.60000       56.95100       75.07100
H         32.00200       56.84300       76.13100
C         30.71200       55.13300       76.22600
H         31.07900       54.80700       77.19800
C         29.23900       54.73400       76.09000
H         28.66700       55.16600       76.91100
H         28.84100       55.09300       75.14100
H         29.14500       53.65000       76.14200
C         31.50000       54.38600       75.14800
H         31.14600       54.67400       74.15900
H         32.55700       54.64000       75.23600
H         31.38400       53.31200       75.28300
C         30.59400       57.14000       78.54900
O         29.89500       56.35700       79.18600
N         31.68600       57.66300       79.09100
H         32.31300       58.22400       78.51800
H         31.93300       57.41100       80.03000
