100
-2 1
H         44.68500       65.51300       73.31800
C         44.33000       66.01200       74.21700
H         45.17200       66.26800       74.85800
H         43.63800       65.36600       74.75300
C         43.61200       67.28100       73.82400
O         44.01700       68.36300       74.22900
N         42.54900       67.12600       73.04300
H         42.26200       66.19200       72.79200
C         41.66800       68.19700       72.56500
H         41.61000       68.97800       73.32500
C         42.25600       68.81500       71.27900
H         43.27600       69.14400       71.48500
H         42.30500       68.03900       70.51200
C         41.47900       70.01500       70.71700
O         41.72800       70.36500       69.54600
O         40.60000       70.57600       71.41600
C         40.24900       67.63300       72.34100
O         40.08400       66.44500       72.06100
N         39.23900       68.49400       72.45800
H         39.51300       69.46600       72.56400
C         37.81800       68.20500       72.25300
H         37.71700       67.24500       71.74400
C         37.12900       68.10100       73.62500
H         37.26200       69.05100       74.14300
H         36.05900       67.96100       73.46800
S         37.70400       66.77900       74.72600
C         37.10800       69.26100       71.37500
O         35.89600       69.16600       71.18300
N         37.81800       70.29000       70.88500
H         38.82300       70.30600       71.05700
C         37.24100       71.47900       70.23700
H         36.20900       71.27400       69.95200
C         37.25600       72.65000       71.24200
H         38.29400       72.82700       71.53100
H         36.89900       73.54700       70.73400
C         36.41900       72.45300       72.52200
H         36.72300       71.53800       73.03000
C         36.66100       73.62400       73.47600
H         37.72100       73.67200       73.72800
H         36.35800       74.55900       73.00700
H         36.09100       73.47300       74.39300
C         34.91800       72.39000       72.23200
H         34.69800       71.51800       71.61700
H         34.36700       72.29200       73.16600
H         34.59700       73.29000       71.70900
C         37.96200       71.90000       68.94300
O         37.35700       72.54100       68.08700
N         39.23000       71.56600       68.75400
H         39.68700       71.83900       67.90400
H         39.76900       71.09000       69.47200
H         40.31700       60.23700       78.84900
C         40.26400       60.08200       77.77400
H         40.70500       59.12200       77.51400
H         40.78700       60.88300       77.25600
C         38.81500       60.08600       77.34800
O         38.33500       59.09800       76.80800
N         38.14200       61.20400       77.59600
H         38.63000       61.98300       78.01200
C         36.74400       61.46800       77.23800
H         36.51600       60.98300       76.28700
C         35.81200       60.88200       78.31900
H         35.97000       59.80400       78.38100
H         36.07700       61.31800       79.28500
C         34.32400       61.13800       78.04600
O         33.93100       61.21100       76.85800
O         33.58000       61.36000       79.02200
C         36.52400       62.98700       77.07300
O         37.26300       63.79000       77.64600
N         35.49700       63.36800       76.31200
H         34.90000       62.61700       75.97400
C         35.02400       64.74300       76.12900
H         35.65300       65.42100       76.70800
C         35.16000       65.11700       74.64500
H         34.55200       64.42500       74.06200
H         34.75200       66.11800       74.50000
S         36.84300       65.09500       73.96600
C         33.57100       64.96000       76.60900
O         33.08900       66.09100       76.57200
N         32.84800       63.90400       77.01200
H         33.28800       62.98500       77.02800
C         31.43700       63.96100       77.41900
H         30.94800       64.78900       76.90400
C         30.74900       62.64500       77.00700
H         31.21100       61.83000       77.56700
H         29.70000       62.69700       77.30300
C         30.82400       62.30300       75.50600
H         31.86400       62.23100       75.18800
C         30.15600       60.95000       75.25400
H         29.10800       60.98500       75.55000
H         30.23400       60.69200       74.19900
H         30.67400       60.18700       75.83700
C         30.11700       63.34700       74.63600
H         29.08300       63.46400       74.95900
H         30.63400       64.30200       74.71900
H         30.14300       63.03400       73.59300
C         31.24800       64.21400       78.92500
O         30.31000       64.89400       79.33200
N         32.11400       63.68500       79.77700
H         31.98900       63.84500       80.75900
H         32.80200       63.01700       79.43900
