100
-2 1
H         41.22200       60.28100       73.16900
C         40.30300       60.86400       73.18800
H         40.30000       61.58200       72.37200
H         40.22800       61.37900       74.14100
C         39.12000       59.93900       73.04100
O         38.16300       60.29400       72.36000
N         39.18700       58.76700       73.66500
H         39.99100       58.59700       74.27100
C         38.16300       57.71300       73.57200
H         37.18200       58.19000       73.55100
C         38.33800       56.92700       72.25300
H         38.34900       57.62600       71.41500
H         39.30000       56.41200       72.27700
C         37.22500       55.90000       72.00500
O         36.08800       56.11100       72.48800
O         37.51900       54.83700       71.41800
C         38.19400       56.74900       74.77800
O         39.21300       56.60200       75.45000
N         37.08000       56.05600       75.02000
H         36.32600       56.20300       74.35300
C         36.94400       54.93800       75.96100
H         37.93800       54.59800       76.24700
C         36.22200       55.42800       77.22500
H         35.26600       55.85500       76.92300
H         36.01300       54.56900       77.86400
S         37.09800       56.65900       78.22900
C         36.23200       53.70300       75.35700
O         36.02500       52.72200       76.07000
N         35.83000       53.73300       74.07800
H         36.02000       54.56600       73.52200
C         35.19900       52.61300       73.36900
H         34.57400       52.06400       74.07300
C         34.29600       53.22300       72.27300
H         33.62500       53.92800       72.76600
H         34.91700       53.81000       71.59500
C         33.41400       52.28700       71.42200
H         32.69000       52.92600       70.91400
C         34.16500       51.53300       70.32300
H         34.79900       52.22900       69.77100
H         34.78300       50.74500       70.74600
H         33.44900       51.08400       69.63700
C         32.61800       51.28900       72.26500
H         32.07000       51.82300       73.04000
H         31.91400       50.75400       71.63100
H         33.29500       50.57200       72.73200
C         36.24100       51.62200       72.81900
O         36.07800       50.41000       72.93300
N         37.33100       52.10400       72.23900
H         38.02400       51.46600       71.89400
H         37.42000       53.10600       72.08400
H         38.00500       61.60800       75.57100
C         37.12100       61.24700       76.09100
H         36.95000       60.20200       75.84000
H         36.25800       61.83600       75.79200
C         37.31900       61.38100       77.58800
O         36.53700       62.05700       78.24300
N         38.33500       60.75800       78.17800
H         38.38800       60.83700       79.18200
C         39.37800       59.94000       77.54300
H         38.98000       59.46900       76.64400
C         40.57100       60.82900       77.14300
H         40.22100       61.64200       76.50600
H         41.00400       61.27000       78.04300
C         41.65300       60.04700       76.38900
O         41.28600       59.11800       75.63400
O         42.84900       60.34400       76.58400
C         39.86500       58.81400       78.47300
O         39.94600       58.98900       79.69000
N         40.23200       57.68300       77.87400
H         40.09500       57.62500       76.86700
C         40.87000       56.53200       78.50600
H         41.10100       56.77600       79.54400
C         39.89000       55.35000       78.49400
H         39.65200       55.10300       77.46100
H         40.40900       54.49200       78.92100
S         38.34200       55.56200       79.42600
C         42.20400       56.14800       77.82600
O         42.87900       55.23400       78.30200
N         42.59000       56.80700       76.72300
H         42.00100       57.56400       76.37800
C         43.83400       56.55300       75.98500
H         44.03000       55.48000       75.97800
C         43.67500       57.04300       74.53100
H         43.58800       58.13100       74.54600
H         44.58700       56.79200       73.98900
C         42.46800       56.48300       73.75300
H         41.54200       56.78700       74.23300
C         42.47800       57.05100       72.33200
H         41.61300       56.68000       71.78400
H         42.41300       58.13800       72.38300
H         43.39100       56.76100       71.81400
C         42.49200       54.95500       73.65200
H         43.42400       54.62200       73.19800
H         42.39100       54.52500       74.64800
H         41.64700       54.61900       73.05100
C         45.05700       57.22900       76.63100
O         46.15600       56.68000       76.62000
N         44.90600       58.42000       77.19400
H         45.70200       58.86600       77.60900
H         44.02600       58.92000       77.09200
