108
0 1
H         42.11600       51.06400       25.20400
C         41.56900       51.89900       24.76700
H         40.84200       51.53000       24.04700
H         42.26600       52.57100       24.26900
C         40.85500       52.65200       25.86300
O         41.12800       53.82900       26.07800
N         39.94300       51.97800       26.56000
H         39.80400       51.00200       26.35900
C         39.22200       52.56500       27.69300
H         38.74100       53.48000       27.34400
C         38.12000       51.60900       28.17000
H         37.41500       51.44400       27.35400
H         38.57000       50.64700       28.42100
C         37.35800       52.12700       29.37700
C         36.38000       53.12700       29.21700
H         36.14400       53.50100       28.23200
C         35.71600       53.64900       30.34100
H         34.96700       54.42000       30.22600
C         36.02500       53.17100       31.62600
H         35.50800       53.57200       32.48700
C         37.00800       52.18000       31.79000
H         37.25200       51.82000       32.78000
C         37.67500       51.65900       30.66700
H         38.44000       50.90700       30.80000
C         40.16500       52.95600       28.84600
O         41.14900       52.27300       29.12500
N         39.84000       54.06200       29.51300
H         39.02200       54.56300       29.18900
C         40.63000       54.66900       30.58500
H         41.13000       53.89000       31.16300
C         41.68900       55.53800       29.89700
H         42.30800       54.90100       29.26300
H         41.17700       56.25200       29.25300
S         42.78300       56.46900       30.99400
C         39.78100       55.51300       31.56000
O         40.11900       55.62800       32.73600
N         38.67100       56.09800       31.09100
H         38.44100       55.96100       30.11500
C         37.79500       57.00400       31.84700
H         38.43300       57.67400       32.42500
C         37.01400       57.86500       30.83600
H         37.71200       58.23000       30.08100
H         36.26700       57.24500       30.34100
C         36.31800       59.07700       31.46600
H         35.64700       58.73300       32.25200
H         37.07000       59.71900       31.92400
S         35.33500       60.07100       30.30500
C         36.63200       60.73400       29.22500
H         36.19600       61.45900       28.53800
H         37.40000       61.22200       29.82400
H         37.08000       59.92600       28.64800
C         36.89200       56.26500       32.86000
O         35.67000       56.27200       32.77200
N         37.47900       55.57500       33.82700
H         36.90500       55.08100       34.48800
H         38.49000       55.53300       33.85800
H         35.55600       56.36600       26.55700
C         35.97400       56.67900       27.51200
H         35.60200       56.03100       28.30300
H         35.68300       57.70700       27.72300
C         37.48100       56.59000       27.45900
O         38.08600       55.88800       28.26200
N         38.07700       57.29500       26.50200
H         37.49000       57.86700       25.91700
C         39.53600       57.44200       26.33100
H         40.02100       56.50200       26.60000
C         39.88500       57.73900       24.85500
H         40.95900       57.90400       24.78000
C         39.54400       56.54300       23.95900
H         39.87200       56.74400       22.93900
H         40.06800       55.65700       24.32100
H         38.47200       56.35300       23.96000
C         39.19200       58.99300       24.30300
H         39.55400       59.19100       23.29400
H         38.11200       58.85500       24.26700
H         39.42500       59.85700       24.92600
C         40.11900       58.53100       27.24600
O         39.39000       59.36400       27.78100
N         41.44400       58.55400       27.39600
H         41.97100       57.80800       26.95500
C         42.19100       59.59400       28.12600
H         41.58900       60.50200       28.16400
C         42.42200       59.10900       29.56300
H         42.76400       59.95200       30.16400
H         41.47200       58.77100       29.97700
S         43.65100       57.78000       29.71400
C         43.54400       59.97300       27.48500
O         44.19600       60.91500       27.92800
N         43.99000       59.23100       26.46700
H         43.37500       58.50900       26.11500
C         45.36500       59.19100       25.95900
H         46.03400       59.29500       26.81400
C         45.63400       57.80500       25.32700
H         45.04300       57.69200       24.41700
H         46.68600       57.77800       25.03800
C         45.38600       56.59400       26.25700
H         46.03500       55.78400       25.92200
H         45.67800       56.84300       27.27800
C         43.95100       56.05600       26.25800
O         42.99500       56.71400       25.87700
N         43.72400       54.84600       26.70800
H         44.46400       54.26600       27.05700
H         42.76900       54.50600       26.61200
C         45.71100       60.36000       25.00700
O         46.34000       60.17900       23.97100
N         45.28400       61.57600       25.31500
H         45.50300       62.33600       24.69300
H         44.80100       61.72300       26.19100
