108
0 1
H         42.64500       54.33900       26.53500
C         42.47900       54.50700       25.47200
H         42.88500       53.67800       24.89600
H         42.97300       55.43100       25.17700
C         40.99600       54.62700       25.22000
O         40.50400       55.72100       24.94900
N         40.28600       53.50600       25.32700
H         40.76000       52.66700       25.63000
C         38.83400       53.40300       25.15200
H         38.40300       54.40100       25.19100
C         38.51700       52.81000       23.77100
H         39.20100       53.24500       23.04000
H         38.70600       51.73600       23.79000
C         37.09800       53.05900       23.29300
C         36.84100       54.08500       22.36200
H         37.65200       54.69200       21.98900
C         35.53000       54.31900       21.91000
H         35.33800       55.10200       21.19000
C         34.46800       53.53800       22.39800
H         33.45800       53.72100       22.06000
C         34.72000       52.52100       23.33500
H         33.90300       51.93100       23.72900
C         36.03200       52.27400       23.77300
H         36.21400       51.48700       24.49200
C         38.21300       52.59900       26.30500
O         38.79800       51.62300       26.77200
N         37.05000       53.03900       26.77800
H         36.58200       53.78300       26.26900
C         36.45100       52.67800       28.05900
H         37.00300       51.84700       28.50000
C         36.56900       53.89100       29.00200
H         36.40900       54.81100       28.43600
H         35.77300       53.82700       29.74400
S         38.13100       54.01300       29.92600
C         34.98900       52.22100       27.89500
O         34.31800       52.54100       26.91600
N         34.48300       51.47300       28.88000
H         35.06900       51.25300       29.67400
C         33.11200       50.95100       28.91600
H         32.44800       51.67500       28.44100
C         33.05300       49.63800       28.10900
H         33.29300       49.85700       27.06700
H         33.80900       48.95200       28.49200
C         31.69800       48.92100       28.15000
H         31.76700       48.03800       27.51300
H         31.50600       48.57700       29.16700
S         30.28500       49.91400       27.59000
C         28.97200       48.67100       27.71400
H         28.02400       49.11400       27.40700
H         29.20200       47.82800       27.06200
H         28.89100       48.32300       28.74400
C         32.65000       50.77000       30.36900
O         33.44900       50.47600       31.25000
N         31.36500       50.94000       30.64900
H         31.06600       50.82900       31.60400
H         30.71400       51.15900       29.91100
H         33.49500       55.26700       24.98700
C         33.93600       56.18700       24.60300
H         33.47200       57.04600       25.08400
H         33.79400       56.23700       23.52700
C         35.41100       56.18100       24.92000
O         35.88600       55.31800       25.64600
N         36.15400       57.15300       24.39200
H         35.70000       57.86300       23.84400
C         37.57500       57.32700       24.73800
H         38.07300       56.37500       24.57100
C         38.28000       58.36400       23.84300
H         39.28700       58.50800       24.22900
C         38.41300       57.82700       22.41300
H         38.96800       58.54100       21.80400
H         38.96000       56.88400       22.42700
H         37.42900       57.66800       21.97100
C         37.59400       59.73600       23.79800
H         37.51700       60.14800       24.80400
H         38.19300       60.42100       23.19700
H         36.59900       59.65800       23.36300
C         37.74000       57.66900       26.22400
O         37.01400       58.50400       26.75700
N         38.71700       57.05500       26.90000
H         39.30300       56.39000       26.41000
C         38.97000       57.28800       28.33100
H         38.03400       57.17400       28.87800
C         39.97100       56.24600       28.84600
H         40.93300       56.43900       28.37100
H         40.10700       56.39800       29.91800
S         39.57800       54.49900       28.57200
C         39.52400       58.69800       28.63300
O         39.58500       59.11300       29.78700
N         39.97500       59.41500       27.60100
H         39.88500       59.00200       26.68500
C         40.68600       60.69000       27.67600
H         40.25900       61.27100       28.49500
C         42.17900       60.43900       27.98700
H         42.63400       61.39900       28.23200
H         42.25300       59.81300       28.87700
C         43.02300       59.79800       26.86400
H         43.04800       60.46000       25.99800
H         44.04800       59.69800       27.22200
C         42.54300       58.41400       26.43100
O         42.84500       57.40600       27.04300
N         41.75700       58.31300       25.38100
H         41.43400       59.15000       24.91100
H         41.44200       57.38300       25.12700
C         40.50400       61.48300       26.37200
O         40.46500       60.91400       25.28300
N         40.43500       62.80500       26.45000
H         40.32000       63.32700       25.59600
H         40.47000       63.26400       27.34500
