108
0 1
H         53.06000       56.16600       21.08000
C         52.75600       55.22700       20.62000
H         53.63300       54.63100       20.37600
H         52.19100       55.43600       19.71300
C         51.88000       54.46100       21.58100
O         50.74100       54.12900       21.25800
N         52.39600       54.17300       22.77400
H         53.31800       54.50000       23.01000
C         51.60500       53.47800       23.79000
H         51.21500       52.58100       23.31400
C         52.47500       53.01500       24.96400
H         53.37300       52.53600       24.57200
H         52.78600       53.88400       25.54500
C         51.76700       52.01600       25.86400
C         51.52400       50.70800       25.40100
H         51.84700       50.41300       24.41300
C         50.84800       49.78000       26.21400
H         50.66900       48.77600       25.85100
C         50.41400       50.15600       27.49600
H         49.90100       49.44100       28.12400
C         50.65400       51.46100       27.96200
H         50.31700       51.75400       28.94700
C         51.32800       52.39000       27.14800
H         51.50000       53.39400       27.51000
C         50.40700       54.33400       24.23700
O         50.53400       55.54400       24.42000
N         49.23600       53.70900       24.36500
H         49.23300       52.71500       24.15900
C         47.92700       54.34600       24.56500
H         47.20600       53.54400       24.60100
C         47.86600       55.04300       25.93600
H         48.52400       55.91100       25.89900
H         46.85600       55.41600       26.09600
S         48.33800       54.06300       27.39400
C         47.42200       55.24300       23.41000
O         46.32900       55.80300       23.52000
N         48.16300       55.37600       22.30300
H         49.04000       54.87400       22.24300
C         47.77900       56.18800       21.13900
H         47.09600       56.96800       21.47600
C         49.00500       56.88900       20.53000
H         49.65100       56.15200       20.05400
H         48.66400       57.58400       19.76100
C         49.81800       57.67100       21.56800
H         49.15400       58.35800       22.09400
H         50.23000       56.97100       22.29400
S         51.19300       58.62100       20.87000
C         51.93900       59.21000       22.41300
H         52.82100       59.80700       22.18600
H         51.21900       59.82100       22.95800
H         52.22700       58.35700       23.02900
C         47.04800       55.36300       20.06700
O         47.35600       54.20200       19.81700
N         46.08900       55.96400       19.37600
H         45.83900       56.91800       19.57500
H         45.61600       55.43200       18.66400
H         43.00800       56.47200       25.78400
C         43.88800       55.93000       26.12500
H         43.96200       55.99200       27.20900
H         44.77800       56.36100       25.67100
C         43.75500       54.48000       25.72400
O         43.45000       53.63600       26.55700
N         43.99400       54.17800       24.44900
H         44.35200       54.91600       23.85500
C         43.90600       52.81700       23.88400
H         43.10200       52.30200       24.41200
C         43.46400       52.86800       22.40300
H         42.51200       53.40000       22.38200
C         44.41100       53.63400       21.47000
H         44.54500       54.65500       21.82400
H         45.38200       53.14300       21.41600
H         43.98500       53.67000       20.46700
C         43.19200       51.47400       21.82300
H         42.73000       51.57100       20.84100
H         44.12000       50.91200       21.71700
H         42.51300       50.92800       22.47700
C         45.17800       52.00800       24.19100
O         45.95100       51.63300       23.31400
N         45.46100       51.81800       25.48000
H         44.81000       52.19300       26.16300
C         46.69700       51.20600       25.96900
H         47.55000       51.72000       25.53100
C         46.77700       51.40700       27.48300
H         45.96900       50.83800       27.94700
H         47.72100       51.00300       27.84600
S         46.63800       53.13300       28.03400
C         46.79200       49.72800       25.55600
O         46.01400       48.89000       26.01000
N         47.74700       49.41800       24.67800
H         48.36200       50.16700       24.37700
C         47.83800       48.17200       23.90900
H         46.82100       47.88000       23.64400
C         48.59900       48.42700       22.58700
H         49.66300       48.55600       22.79400
H         48.49700       47.52800       21.97700
C         48.09500       49.62100       21.74300
H         48.30100       49.39600       20.69600
H         47.01600       49.72800       21.84500
C         48.78500       50.95100       22.06600
O         49.34600       51.15200       23.13400
N         48.80100       51.90400       21.16100
H         49.36000       52.73200       21.32500
H         48.23400       51.85600       20.33300
C         48.42900       46.99400       24.71700
O         49.31500       46.28000       24.26300
N         47.98600       46.78700       25.94900
H         48.37100       46.02300       26.47900
H         47.23700       47.36600       26.30700
