108
0 1
H         48.86700       47.20800       27.52600
C         49.09100       47.86500       26.68800
H         48.73800       47.41300       25.76200
H         50.16600       48.03000       26.63100
C         48.39100       49.18600       26.89300
O         47.55100       49.57700       26.09100
N         48.76400       49.89900       27.95300
H         49.48700       49.50100       28.53900
C         48.17800       51.18400       28.37600
H         47.09400       51.07700       28.33300
C         48.55500       51.44500       29.84500
H         49.63100       51.61000       29.91200
H         48.06700       52.36200       30.17800
C         48.16700       50.33000       30.79900
C         49.11100       49.35900       31.18300
H         50.12000       49.40100       30.80200
C         48.74700       48.32900       32.06700
H         49.47800       47.59100       32.36900
C         47.43400       48.26200       32.56500
H         47.15400       47.47100       33.24700
C         46.48600       49.22600       32.17800
H         45.47700       49.17500       32.56300
C         46.85200       50.25900       31.29700
H         46.12200       51.00000       31.00500
C         48.53900       52.37900       27.46100
O         48.79100       53.49100       27.92300
N         48.66500       52.16700       26.14900
H         48.42200       51.24700       25.79600
C         49.22600       53.14900       25.21300
H         50.15200       53.53900       25.63400
C         49.58700       52.44100       23.90500
H         48.67900       52.02800       23.46500
H         49.98400       53.18400       23.21100
S         50.81300       51.10900       24.05500
C         48.32900       54.37800       24.96900
O         48.78700       55.36000       24.39500
N         47.07600       54.34600       25.43100
H         46.77600       53.51000       25.91100
C         46.16300       55.49500       25.47000
H         46.31500       56.07800       24.56100
C         44.70800       54.98600       25.46000
H         44.05700       55.83700       25.25200
H         44.58000       54.27700       24.64100
C         44.22300       54.34300       26.77200
H         44.28900       55.08800       27.56500
H         43.16700       54.09900       26.65400
S         45.07900       52.84100       27.34300
C         44.65000       51.66100       26.03300
H         45.06900       50.68300       26.27500
H         43.56600       51.57600       25.95500
H         45.05900       51.99400       25.07900
C         46.41900       56.45300       26.65200
O         45.78600       57.49600       26.74500
N         47.31100       56.13200       27.58400
H         47.45000       56.77100       28.34800
H         47.81300       55.25600       27.53700
H         53.02300       55.31400       32.40400
C         51.96000       55.42300       32.19700
H         51.66900       56.46700       32.28600
H         51.39100       54.82100       32.90300
C         51.67800       54.93900       30.79400
O         50.92500       53.98800       30.60600
N         52.27100       55.59800       29.79900
H         52.92800       56.32400       30.03400
C         52.05300       55.27200       28.38100
H         50.97600       55.26100       28.20500
C         52.65800       56.33500       27.44300
H         53.73200       56.40500       27.62100
C         52.42500       55.98900       25.96600
H         52.82400       56.78200       25.33400
H         52.94000       55.06400       25.70500
H         51.35800       55.88100       25.76400
C         52.03100       57.71300       27.70000
H         50.95200       57.66900       27.54500
H         52.23500       58.04200       28.71800
H         52.45800       58.44600       27.01400
C         52.59400       53.87500       28.06600
O         53.79800       53.63200       28.10600
N         51.68100       52.97100       27.71800
H         50.72200       53.29200       27.78300
C         51.86300       51.53800       27.45500
H         50.91800       51.18800       27.05200
C         52.87100       51.28600       26.32500
H         53.85400       51.63000       26.64700
H         52.94400       50.20900       26.17100
S         52.50700       52.04100       24.71200
C         52.10400       50.62800       28.67800
O         51.74500       49.45500       28.58500
N         52.61400       51.11400       29.81900
H         52.86600       52.09700       29.85800
C         52.93700       50.27000       30.99400
H         52.51000       49.28200       30.82100
C         54.46200       50.04200       31.10500
H         54.62600       49.16900       31.73900
H         54.85700       49.80000       30.11700
C         55.27500       51.20600       31.70100
H         54.95900       51.39200       32.72800
H         56.32900       50.93100       31.71900
C         55.10500       52.48000       30.89300
O         54.26400       53.31300       31.17900
N         55.80400       52.62700       29.79200
H         56.46700       51.93600       29.50200
H         55.45300       53.34100       29.16300
C         52.30800       50.71900       32.32900
O         52.52000       50.07800       33.35100
N         51.51900       51.78200       32.36800
H         51.35700       52.34300       31.54200
H         51.11100       52.03800       33.25100
