102
0 1
H        -35.97800       -7.08900       -4.20000
C        -37.05600       -6.96400       -4.12400
H        -37.50300       -6.99600       -5.11600
H        -37.28100       -6.01100       -3.64900
C        -37.63000       -8.07900       -3.28400
O        -38.51000       -8.80200       -3.74000
N        -37.15200       -8.19600       -2.04900
H        -36.42800       -7.54200       -1.77900
C        -37.54700       -9.23800       -1.08500
H        -38.55200       -9.58100       -1.32800
C        -36.60900      -10.44300       -1.22400
H        -36.95200      -11.24900       -0.57400
H        -36.63600      -10.79600       -2.25600
O        -35.27500      -10.09900       -0.88800
H        -35.16600      -10.15300        0.06600
C        -37.58500       -8.77100        0.37700
O        -38.25300       -9.39800        1.19200
N        -36.91500       -7.66900        0.73400
H        -36.38700       -7.17500        0.02700
C        -36.91400       -7.11700        2.09700
H        -36.83500       -7.95200        2.79500
C        -35.67400       -6.23300        2.31100
H        -35.65300       -5.44200        1.56700
H        -35.78200       -5.75100        3.28400
S        -34.07100       -7.09100        2.34300
C        -38.21800       -6.37800        2.48000
O        -38.26800       -5.72500        3.51800
N        -39.26900       -6.46800        1.65700
H        -39.16500       -7.02300        0.82200
C        -40.63900       -6.05900        2.00500
H        -40.61000       -5.13700        2.58700
C        -41.42300       -5.79100        0.70800
H        -42.47800       -5.65200        0.94500
H        -41.06100       -4.86200        0.26600
C        -41.29400       -6.88500       -0.32400
N        -41.76800       -8.18900       -0.18700
C        -41.38400       -8.84300       -1.29100
H        -41.58300       -9.88900       -1.48600
N        -40.68700       -8.02700       -2.09800
H        -40.21400       -8.31300       -2.95500
C        -40.61500       -6.78700       -1.50300
H        -40.11000       -5.90700       -1.87800
C        -41.36800       -7.09200        2.88300
O        -42.33700       -6.75400        3.55200
N        -40.91700       -8.34100        2.93600
H        -41.41600       -9.00200        3.50500
H        -40.14800       -8.62600        2.34800
H        -31.43900        0.38400        0.97900
C        -31.84000       -0.61200        1.15600
H        -32.54900       -0.57700        1.98300
H        -31.02900       -1.29700        1.39700
C        -32.55300       -1.08900       -0.08500
O        -33.74800       -1.35800       -0.04800
N        -31.81300       -1.24400       -1.18200
H        -30.81500       -1.09300       -1.10900
C        -32.33200       -1.65400       -2.50000
H        -33.03300       -0.89800       -2.85600
C        -31.15400       -1.73900       -3.48300
H        -31.54800       -1.90700       -4.48600
H        -30.61800       -0.78900       -3.49000
C        -30.17800       -2.84500       -3.15300
N        -29.43700       -2.94100       -1.97200
C        -28.72100       -4.07000       -2.07800
H        -28.02600       -4.42900       -1.32800
N        -28.98700       -4.68700       -3.24200
H        -28.56500       -5.55100       -3.55700
C        -29.90600       -3.93000       -3.93400
H        -30.33600       -4.14300       -4.90300
C        -33.08800       -2.99100       -2.48000
O        -33.99000       -3.19700       -3.28700
N        -32.77000       -3.87200       -1.52600
H        -31.99000       -3.63600       -0.93200
C        -33.48100       -5.12800       -1.28100
H        -33.39600       -5.75300       -2.17100
C        -32.78000       -5.84400       -0.11800
H        -31.74700       -6.04500       -0.40600
H        -32.76300       -5.17800        0.74500
S        -33.52800       -7.41300        0.40400
C        -34.98800       -4.94400       -1.00100
O        -35.75600       -5.88400       -1.19800
N        -35.43800       -3.76200       -0.56100
H        -34.77600       -3.00600       -0.41700
C        -36.86000       -3.46300       -0.35400
H        -37.28600       -4.24300        0.27800
C        -36.94800       -2.11900        0.39700
H        -36.36100       -2.19600        1.31300
H        -36.49300       -1.34800       -0.22700
C        -38.36900       -1.65100        0.76900
H        -38.95800       -1.50800       -0.13700
C        -39.08600       -2.64500        1.68200
H        -40.05700       -2.24600        1.97400
H        -39.25200       -3.57700        1.14700
H        -38.49300       -2.84100        2.57600
C        -38.28700       -0.31000        1.49900
H        -39.29200        0.04200        1.73100
H        -37.72400       -0.42100        2.42600
H        -37.79700        0.42600        0.86300
C        -37.67100       -3.45800       -1.66800
O        -38.86400       -3.73200       -1.66000
N        -37.05100       -3.19800       -2.81300
H        -37.59100       -3.20700       -3.66100
H        -36.05400       -3.03100       -2.82800
