102
0 1
H        -29.40100       -5.29000        4.49800
C        -29.37000       -4.97900        3.45600
H        -28.84900       -5.73000        2.86400
H        -28.85300       -4.02500        3.37700
C        -30.77900       -4.82900        2.93800
O        -31.15200       -5.47400        1.96700
N        -31.55500       -3.94400        3.55900
H        -31.12000       -3.40500        4.30200
C        -32.96500       -3.64800        3.23700
H        -33.46800       -4.60400        3.08800
C        -33.61800       -2.97000        4.45100
H        -33.47600       -3.59600        5.33300
H        -33.14400       -2.00400        4.62600
O        -35.00100       -2.78400        4.24200
H        -35.07600       -2.18600        3.48100
C        -33.15700       -2.84500        1.92900
O        -34.00900       -1.95800        1.82800
N        -32.32800       -3.11200        0.91700
H        -31.69800       -3.89900        1.03200
C        -32.22800       -2.32500       -0.31400
H        -32.12100       -1.27700       -0.03400
C        -30.96400       -2.74700       -1.06800
H        -31.08700       -3.78100       -1.39300
H        -30.87600       -2.13000       -1.96400
S        -29.39700       -2.63500       -0.15900
C        -33.46200       -2.42500       -1.23600
O        -33.55300       -1.68100       -2.21200
N        -34.41600       -3.31000       -0.93500
H        -34.28500       -3.89200       -0.11400
C        -35.73300       -3.38900       -1.57800
H        -35.61700       -3.32300       -2.66100
C        -36.35300       -4.74800       -1.22000
H        -37.30000       -4.85800       -1.75100
H        -35.68800       -5.54600       -1.55300
C        -36.59800       -4.90900        0.26100
N        -35.60300       -5.05800        1.23100
C        -36.24300       -5.08400        2.41000
H        -35.75900       -5.18200        3.37300
N        -37.56700       -4.94300        2.23000
H        -38.25300       -4.90500        2.97100
C        -37.81000       -4.82700        0.88000
H        -38.76400       -4.66700        0.39500
C        -36.68600       -2.25800       -1.15400
O        -37.68800       -2.01600       -1.81400
N        -36.42100       -1.55800       -0.05600
H        -37.06400       -0.83300        0.21300
H        -35.61800       -1.79400        0.51000
H        -29.85700        5.68800        2.37600
C        -29.39500        4.70500        2.44400
H        -28.50800        4.76200        3.07400
H        -29.11800        4.36000        1.44900
C        -30.37600        3.73600        3.05800
O        -30.10900        3.16600        4.10900
N        -31.50200        3.50900        2.38400
H        -31.62300        3.94700        1.47900
C        -32.58900        2.62900        2.84600
H        -32.93500        2.98200        3.81900
C        -33.75500        2.72600        1.85500
H        -34.59700        2.15100        2.24100
H        -34.07100        3.76600        1.77200
C        -33.40400        2.21800        0.48100
N        -32.51200        2.82700       -0.40500
C        -32.47600        2.03200       -1.48700
H        -31.88000        2.22200       -2.37100
N        -33.27500        0.96700       -1.31300
H        -33.40800        0.20300       -1.97600
C        -33.85900        1.06000       -0.07100
H        -34.53500        0.35500        0.39100
C        -32.17100        1.16200        3.03900
O        -32.83400        0.43200        3.77000
N        -31.03100        0.74800        2.47400
H        -30.56900        1.38500        1.84500
C        -30.36600       -0.51900        2.78900
H        -30.99100       -1.33900        2.44700
C        -29.03500       -0.56900        2.03400
H        -28.45200        0.31200        2.30600
H        -28.47600       -1.44300        2.37300
S        -29.12700       -0.64900        0.22400
C        -30.10600       -0.72800        4.29700
O        -30.01800       -1.87300        4.73600
N        -30.00000        0.34300        5.09300
H        -30.07500        1.26600        4.67500
C        -29.84600        0.28000        6.55300
H        -29.12800       -0.50300        6.79600
C        -29.29400        1.63000        7.05600
H        -30.01900        2.40700        6.81100
H        -29.21100        1.58900        8.14300
C        -27.92200        2.03400        6.47900
H        -27.96300        2.04500        5.39100
C        -27.55900        3.44100        6.95400
H        -26.59900        3.73800        6.53100
H        -28.32100        4.14500        6.61800
H        -27.49800        3.46600        8.04200
C        -26.80600        1.08000        6.91300
H        -26.98600        0.08600        6.50600
H        -25.84900        1.43800        6.53600
H        -26.76500        1.02300        8.00100
C        -31.14300       -0.09100        7.30400
O        -31.11000       -0.34200        8.50200
N        -32.29800       -0.13600        6.65000
H        -32.33700        0.07000        5.66100
H        -33.12600       -0.38200        7.16400
