102
0 1
H        -29.73200      -10.20700        3.29700
C        -30.39100       -9.90300        4.10800
H        -29.83000       -9.30200        4.82000
H        -30.78800      -10.78300        4.61100
C        -31.53600       -9.08800        3.56200
O        -31.87800       -8.04600        4.11400
N        -32.12600       -9.55500        2.46500
H        -31.78600      -10.42000        2.06900
C        -33.27200       -8.93900        1.78100
H        -33.18200       -7.85500        1.85100
C        -33.22100       -9.31100        0.29400
H        -34.04800       -8.83400       -0.23500
H        -32.28200       -8.95900       -0.13500
O        -33.30500      -10.71500        0.14400
H        -34.21300      -10.96300        0.37000
C        -34.61200       -9.33100        2.43000
O        -35.49700       -9.87900        1.77400
N        -34.76200       -9.09100        3.73500
H        -33.99300       -8.64800        4.22200
C        -35.95300       -9.46900        4.51500
H        -36.14700      -10.53200        4.36300
C        -35.65600       -9.23200        6.00100
H        -35.59200       -8.15600        6.16400
H        -36.49800       -9.60300        6.58800
S        -34.14000       -9.99300        6.64100
C        -37.24000       -8.70100        4.13200
O        -38.30400       -8.96200        4.68300
N        -37.13600       -7.70900        3.24600
H        -36.22100       -7.55300        2.84200
C        -38.11900       -6.64300        3.01300
H        -38.53100       -6.35100        3.98000
C        -37.37300       -5.42800        2.42600
H        -37.22500       -5.58700        1.35700
H        -37.98300       -4.53200        2.55200
C        -36.01500       -5.20400        3.05300
N        -34.83600       -5.84000        2.64400
C        -33.91200       -5.51900        3.56100
H        -32.88600       -5.86300        3.55100
N        -34.45000       -4.75800        4.52600
H        -33.96200       -4.49600        5.38200
C        -35.77800       -4.55100        4.22700
H        -36.51200       -4.03600        4.83200
C        -39.32600       -7.04000        2.14500
O        -40.15800       -6.20100        1.82400
N        -39.44600       -8.29400        1.73300
H        -38.77000       -8.98000        2.02700
H        -40.24300       -8.54000        1.17100
H        -30.49700      -11.56100       11.23000
C        -30.36500      -10.72900       11.92000
H        -29.49400      -10.90000       12.54900
H        -31.25200      -10.63200       12.54500
C        -30.17700       -9.45200       11.13600
O        -30.96900       -8.52600       11.26500
N        -29.12900       -9.40000       10.31400
H        -28.52600      -10.20500       10.26000
C        -28.81200       -8.24000        9.46900
H        -28.93300       -7.33500       10.06900
C        -27.33600       -8.28600        9.03500
H        -26.70600       -8.37600        9.92100
H        -27.16400       -9.15700        8.40100
C        -26.92400       -7.03800        8.29400
N        -26.74000       -5.78600        8.87900
C        -26.50500       -4.93700        7.86800
H        -26.35100       -3.87200        7.98500
N        -26.55700       -5.58200        6.69000
H        -26.55200       -5.13600        5.77500
C        -26.81300       -6.91100        6.94000
H        -26.97800       -7.69400        6.21300
C        -29.77900       -8.10600        8.27800
O        -29.42700       -8.37600        7.13000
N        -31.01600       -7.68500        8.54000
H        -31.27300       -7.59400        9.51800
C        -32.03700       -7.39500        7.52600
H        -31.97800       -8.17400        6.76600
C        -33.42800       -7.48800        8.16700
H        -33.43500       -6.91600        9.09600
H        -34.15900       -7.03700        7.49700
S        -33.96900       -9.18400        8.50700
C        -31.79200       -6.06800        6.77300
O        -32.68000       -5.22200        6.65400
N        -30.57300       -5.88400        6.26200
H        -29.90300       -6.63200        6.41500
C        -30.15100       -4.75800        5.42500
H        -31.01100       -4.45700        4.82800
C        -29.75300       -3.57300        6.33200
H        -30.54700       -3.41600        7.06500
H        -28.85500       -3.84700        6.88300
C        -29.50400       -2.23200        5.61300
H        -28.70300       -2.33400        4.88400
C        -30.75600       -1.71600        4.89700
H        -31.01700       -2.37600        4.07200
H        -31.59000       -1.65800        5.59600
H        -30.56200       -0.72400        4.48800
C        -29.07900       -1.18100        6.63900
H        -28.87000       -0.23700        6.13400
H        -29.87000       -1.02900        7.37300
H        -28.17400       -1.51000        7.14800
C        -29.06600       -5.22100        4.43000
O        -27.96700       -4.68300        4.34900
N        -29.33400       -6.30200        3.70900
H        -30.21800       -6.77800        3.82900
H        -28.63400       -6.63800        3.06900
