102
0 1
H        -37.17600       -5.45800        2.03100
C        -36.59500       -6.37500        1.94600
H        -35.91500       -6.30800        1.10000
H        -37.26600       -7.22200        1.81000
C        -35.79900       -6.58000        3.21300
O        -35.97100       -7.58300        3.89100
N        -34.92800       -5.62500        3.52900
H        -34.86000       -4.81500        2.93100
C        -34.08000       -5.62300        4.72800
H        -34.63800       -6.04700        5.56300
C        -32.83400       -6.49000        4.48900
H        -33.15100       -7.51300        4.28200
H        -32.28600       -6.11300        3.62300
O        -31.97400       -6.49900        5.61500
H        -31.38200       -5.72200        5.57600
C        -33.66600       -4.19500        5.09100
O        -33.64800       -3.31500        4.23100
N        -33.28000       -3.97600        6.34900
H        -33.30300       -4.76300        6.98000
C        -32.43200       -2.84500        6.72600
H        -32.84500       -1.92900        6.30700
C        -32.42000       -2.72300        8.25400
H        -32.03900       -3.65400        8.67600
H        -31.72500       -1.93200        8.54000
S        -34.03400       -2.36200        9.00300
C        -31.00100       -3.01300        6.17600
O        -30.62100       -4.09800        5.72100
N        -30.19700       -1.94900        6.24600
H        -30.55700       -1.09700        6.66300
C        -28.74600       -2.02000        6.03700
H        -28.55500       -2.60200        5.13400
C        -28.18900       -0.60000        5.82600
H        -28.97400        0.03200        5.41100
H        -27.89800       -0.17000        6.78600
C        -27.02000       -0.53800        4.87300
N        -25.81700       -1.23800        5.00100
C        -25.06500       -0.87600        3.95200
H        -24.06400       -1.24000        3.76100
N        -25.72700        0.00400        3.18100
H        -25.37100        0.43300        2.33900
C        -26.96100        0.22900        3.74700
H        -27.73600        0.89400        3.38900
C        -28.05300       -2.74300        7.21000
O        -28.62900       -2.93400        8.27900
N        -26.80400       -3.14900        7.04700
H        -26.34700       -3.61400        7.81200
H        -26.30700       -2.89500        6.20400
H        -37.37000        2.32300        5.02700
C        -37.44500        2.96100        5.90700
H        -37.85700        2.39100        6.73800
H        -38.09000        3.81100        5.68800
C        -36.06900        3.46100        6.27300
O        -35.08900        3.10900        5.63000
N        -35.97900        4.26700        7.32800
H        -36.83700        4.56000        7.78400
C        -34.74500        4.95700        7.74000
H        -34.43300        5.61900        6.93100
C        -35.04300        5.81600        8.98000
H        -35.24500        5.15900        9.82800
H        -34.15800        6.40700        9.22100
C        -36.22200        6.74500        8.81900
N        -37.56000        6.34400        8.77700
C        -38.27500        7.46800        8.62300
H        -39.35600        7.50300        8.56100
N        -37.46300        8.53700        8.55900
H        -37.76500        9.49500        8.44900
C        -36.16200        8.10000        8.68000
H        -35.26400        8.70300        8.67200
C        -33.55900        4.02300        8.02300
O        -32.41200        4.44000        7.89200
N        -33.81300        2.75500        8.36400
H        -34.77500        2.45900        8.40200
C        -32.77100        1.75100        8.58700
H        -32.01600        2.19500        9.23800
C        -33.37600        0.55700        9.33000
H        -32.54800       -0.06200        9.67900
H        -33.91800        0.90200       10.21100
S        -34.46500       -0.48900        8.33000
C        -32.03100        1.29700        7.30800
O        -31.06900        0.53900        7.41200
N        -32.43900        1.74400        6.11200
H        -33.29000        2.29400        6.06000
C        -31.63900        1.61400        4.88400
H        -31.18200        0.62600        4.86400
C        -32.54600        1.76700        3.64100
H        -33.24300        2.58900        3.80200
H        -31.91900        2.05800        2.79700
C        -33.33400        0.52200        3.18400
H        -33.88600        0.80600        2.28800
C        -32.40500       -0.63100        2.79800
H        -31.92600       -1.05400        3.68000
H        -32.98700       -1.41800        2.31900
H        -31.64500       -0.28100        2.10100
C        -34.35400        0.01700        4.20400
H        -35.05400        0.81300        4.44800
H        -34.90700       -0.82100        3.77900
H        -33.85400       -0.32200        5.10700
C        -30.46700        2.61900        4.82900
O        -29.57700        2.48100        3.99800
N        -30.42100        3.62900        5.69100
H        -29.64100        4.26100        5.64400
H        -31.14900        3.74900        6.38200
