99
0 1
H          9.89400       36.38000      -16.75500
C         10.42600       37.33100      -16.76700
H         11.44500       37.17600      -16.41700
H          9.91100       38.03500      -16.11800
C         10.44200       37.87100      -18.18600
O          9.76100       37.30600      -19.03100
N         11.21300       38.93300      -18.48500
C         11.94400       39.73700      -17.51300
H         12.98000       39.39800      -17.47000
H         11.49600       39.70300      -16.52000
C         11.88400       41.16300      -18.05000
H         12.70600       41.77300      -17.67400
H         10.92000       41.61200      -17.80500
C         11.98500       40.93400      -19.55400
H         13.03600       40.80300      -19.81900
H         11.55300       41.76200      -20.11800
C         11.21100       39.62500      -19.78700
H         10.17600       39.87500      -20.02000
C         11.77600       38.84800      -20.99900
O         12.23100       39.47000      -21.95800
N         11.81600       37.51300      -20.97100
H         11.29700       37.03800      -20.24300
C         12.44400       36.68600      -22.00500
H         12.21500       37.12600      -22.97700
C         13.97400       36.73400      -21.81400
H         14.43000       36.53300      -22.78400
H         14.27100       37.74700      -21.54100
S         14.72900       35.57200      -20.63700
C         11.90400       35.24100      -22.02100
O         10.97100       34.90200      -21.29200
N         12.51800       34.37300      -22.83100
H         13.30800       34.69700      -23.37100
C         12.33300       32.91900      -22.78000
H         11.76700       32.66400      -21.88600
C         11.53300       32.41600      -23.99100
H         12.11500       32.56700      -24.90100
H         11.35800       31.34700      -23.86500
C         10.17900       33.12300      -24.13400
H          9.73100       33.21400      -23.14600
H         10.34000       34.13200      -24.51600
S          8.98200       32.27500      -25.20100
C          9.79400       32.44500      -26.81400
H          9.15700       32.01300      -27.58600
H          9.95700       33.50100      -27.03300
H         10.74900       31.92100      -26.80500
C         13.69900       32.22700      -22.68300
O         14.65600       32.66100      -23.31500
N         13.81100       31.16600      -21.89800
H         13.01600       30.85100      -21.35900
H         14.72300       30.74500      -21.77400
H          7.99500       35.41800      -20.13800
C          7.55600       35.01400      -19.22600
H          6.55600       34.63700      -19.42300
H          7.50900       35.80500      -18.47900
C          8.44000       33.89700      -18.70700
O          8.98300       34.02600      -17.61100
N          8.60000       32.78900      -19.45500
C          7.97400       32.54200      -20.74800
H          8.21500       33.33300      -21.46000
H          6.89400       32.46900      -20.62000
C          8.52300       31.20000      -21.23800
H          9.42700       31.35800      -21.82700
H          7.78200       30.64600      -21.81400
C          8.88300       30.48600      -19.93600
H          9.61000       29.68800      -20.09000
H          7.97700       30.07900      -19.48500
C          9.41300       31.63300      -19.06500
H          9.23300       31.39500      -18.01600
C         10.92200       31.91100      -19.23500
O         11.63000       31.18600      -19.93500
N         11.41600       32.98900      -18.62000
H         10.75500       33.52600      -18.06800
C         12.74400       33.58100      -18.81700
H         12.94700       33.54200      -19.88600
C         12.65500       35.06700      -18.43000
H         11.80300       35.49500      -18.95600
H         12.44800       35.12800      -17.36200
S         14.10200       36.11400      -18.77400
C         13.89600       32.79500      -18.14700
O         14.72000       33.33800      -17.41300
N         13.95300       31.48500      -18.39400
H         13.23100       31.09800      -18.99000
C         15.09100       30.62100      -18.05500
H         15.47300       30.90500      -17.07400
C         14.65900       29.14000      -17.98400
H         14.27200       28.82800      -18.95500
C         15.83200       28.22600      -17.60500
H         16.60800       28.27000      -18.37100
H         16.25300       28.53000      -16.64600
H         15.48800       27.19400      -17.53500
C         13.55300       28.93400      -16.93900
H         12.65900       29.49100      -17.22000
H         13.28900       27.87700      -16.88400
H         13.89300       29.27100      -15.96000
C         16.20000       30.85000      -19.08700
O         16.18200       30.29200      -20.17900
N         17.16000       31.70800      -18.77500
H         17.87300       31.89500      -19.45900
H         17.10000       32.23200      -17.91600
