111
0 1
H         14.56900       12.48600      102.55600
C         14.88200       11.50400      102.90600
H         14.96200       11.50400      103.99100
H         15.85000       11.25400      102.47200
C         13.87200       10.46700      102.47800
O         14.20600        9.53900      101.75300
N         12.61800       10.63700      102.89400
H         12.40400       11.44300      103.45900
C         11.53600        9.67500      102.62900
H         11.82800        8.71100      103.04900
C         10.26100       10.13300      103.35600
H          9.45100        9.44300      103.11500
H         10.43300       10.05700      104.43000
C          9.81100       11.54800      103.03500
C          9.04100       11.80600      101.88500
H          8.75300       10.99700      101.22700
C          8.64100       13.12000      101.58400
H          8.05000       13.31500      100.70000
C          9.00800       14.18000      102.43000
H          8.69700       15.18900      102.19500
C          9.76900       13.92700      103.58400
H         10.03800       14.74200      104.24100
C         10.16600       12.61300      103.88800
H         10.73700       12.42300      104.78600
C         11.26900        9.42000      101.13200
O         10.76000        8.35900      100.78600
N         11.66900       10.33200      100.24000
H         12.04900       11.19700      100.58800
C         11.60900       10.14600       98.78500
H         10.60800        9.79100       98.53600
C         11.82300       11.49900       98.09500
H         12.83500       11.84800       98.30300
H         11.74000       11.35200       97.01600
S         10.65200       12.79600       98.57500
C         12.59000        9.09400       98.22400
O         12.56900        8.84000       97.02100
N         13.44100        8.49100       99.06100
H         13.47500        8.80900      100.02300
C         14.28100        7.33100       98.72100
H         13.78400        6.82500       97.89600
C         15.66200        7.81200       98.20200
H         15.47000        8.58300       97.45400
C         16.50200        8.46700       99.31300
H         15.95600        9.29800       99.75800
H         16.73700        7.73900      100.09000
H         17.43300        8.85100       98.89600
C         16.51900        6.73500       97.49800
H         17.41600        7.21600       97.10700
H         16.84300        5.97500       98.20800
C         15.81200        6.04800       96.32200
H         16.52700        5.42000       95.79000
H         15.00200        5.41600       96.68600
H         15.41700        6.79700       95.63500
C         14.29600        6.29200       99.86600
O         15.22800        5.51800      100.04100
N         13.25400        6.25600      100.68900
H         13.26100        5.58300      101.43500
H         12.45400        6.84500      100.50900
H          8.76300        4.79100       99.55400
C          9.49500        5.55200       99.81500
H         10.33500        5.09400      100.33400
H          9.03800        6.30300      100.45700
C          9.99800        6.21700       98.55600
O         11.18300        6.14900       98.25600
N          9.08900        6.83900       97.81000
H          8.14700        6.89500       98.17200
C          9.32700        7.56200       96.55100
H         10.35800        7.90600       96.51300
C          9.06000        6.64900       95.33300
H          8.01200        6.34400       95.37000
H          9.19100        7.23100       94.41900
C          9.91200        5.36900       95.21500
H          9.90300        4.81700       96.15300
H          9.45400        4.72900       94.46100
C         11.35500        5.62200       94.78300
O         11.71800        5.49700       93.62400
N         12.23500        6.02100       95.66800
H         11.96200        6.14600       96.64000
H         13.17600        6.16800       95.35900
C          8.40800        8.79800       96.49900
O          7.36600        8.81100       97.15200
N          8.76400        9.81900       95.71200
H          9.62000        9.74400       95.17200
C          7.99800       11.07200       95.56800
H          7.02200       10.95400       96.04100
C          8.73900       12.20000       96.29900
H          9.74400       12.27600       95.88300
H          8.23000       13.14600       96.10900
S          8.85300       11.97900       98.09200
C          7.71600       11.42300       94.09300
O          7.53000       12.58600       93.73900
N          7.75200       10.42000       93.21500
H          7.86700        9.48200       93.57300
C          7.91800       10.57800       91.77100
H          7.32400       11.42500       91.42600
C          9.40700       10.85700       91.48200
H          9.58600       10.82100       90.40700
H          9.64000       11.86800       91.81900
C         10.35600        9.90700       92.17700
N         10.89500       10.09100       93.45600
C         11.61300        8.98700       93.71200
H         12.15800        8.80000       94.62900
N         11.51400        8.11900       92.69400
H         11.85700        7.15700       92.71700
C         10.72400        8.67800       91.71700
H         10.40800        8.21500       90.79300
C          7.44500        9.32000       91.03000
O          7.40000        8.23000       91.58900
N          7.10700        9.44000       89.75400
H          7.14900       10.33400       89.29600
H          6.79700        8.61300       89.26900
