111
0 1
H         11.26500       10.21300       96.15800
C         12.06000        9.47000       96.17300
H         12.26700        9.14200       95.15600
H         11.75800        8.61900       96.78100
C         13.30500       10.08600       96.76500
O         13.66600        9.76500       97.89100
N         13.96600       10.98100       96.03400
H         13.55700       11.27700       95.15200
C         15.14100       11.69000       96.54800
H         15.75900       10.96200       97.07700
C         16.01100       12.24200       95.40300
H         16.85900       12.76700       95.84500
H         16.42500       11.39100       94.86100
C         15.35400       13.16700       94.38900
C         15.34200       14.56000       94.59700
H         15.74600       14.97400       95.50600
C         14.80000       15.42200       93.62700
H         14.78600       16.49000       93.80100
C         14.25900       14.89300       92.44300
H         13.83700       15.55600       91.70000
C         14.26700       13.50400       92.22800
H         13.85400       13.09600       91.31700
C         14.81900       12.64400       93.19600
H         14.82800       11.57900       93.02000
C         14.71800       12.75400       97.57300
O         14.04700       13.72600       97.23400
N         15.09300       12.56400       98.84200
H         15.56300       11.69700       99.05600
C         14.65800       13.37700       99.99000
H         13.61600       13.61700       99.84900
C         14.69000       12.52100      101.25700
H         15.71800       12.21100      101.44800
H         14.35900       13.12200      102.10400
S         13.63600       11.04200      101.16000
C         15.33600       14.75700      100.11900
O         15.70300       15.18500      101.21400
N         15.47600       15.45300       98.99000
H         15.08000       15.02800       98.15900
C         15.96300       16.83600       98.84600
H         15.84600       17.33800       99.80600
C         17.47200       16.87400       98.48900
H         17.76100       17.92500       98.42100
C         18.32100       16.25800       99.61600
H         19.37500       16.48600       99.46100
H         18.02200       16.68000      100.57700
H         18.19000       15.17700       99.64700
C         17.76800       16.21600       97.12200
H         17.53900       15.15000       97.17100
H         17.12800       16.66800       96.36400
C         19.21700       16.38200       96.64800
H         19.31100       15.98600       95.63600
H         19.48700       17.43800       96.64100
H         19.89700       15.83400       97.29900
C         15.09200       17.64100       97.85700
O         15.52200       18.65300       97.31700
N         13.87300       17.19600       97.57600
H         13.31900       17.67400       96.88000
H         13.48600       16.40600       98.07400
H          6.40300       16.50500      101.74300
C          6.64400       16.13000      100.75000
H          6.02200       16.63400      100.01100
H          6.46700       15.05700      100.70200
C          8.09500       16.41600      100.44500
O          8.39400       17.11000       99.48300
N          8.99400       15.87400      101.26500
H          8.65300       15.35600      102.05800
C         10.44800       16.07400      101.15200
H         10.63700       17.12400      100.92000
C         11.05600       15.75600      102.53500
H         10.57800       16.39200      103.28200
H         10.82500       14.72000      102.78700
C         12.58100       15.93900      102.65200
H         12.88700       15.67800      103.66400
H         13.08200       15.24800      101.97800
C         13.06000       17.36200      102.37000
O         12.32700       18.33100      102.46100
N         14.31600       17.54800      102.03900
H         14.93600       16.75400      101.91200
H         14.59500       18.49700      101.87000
C         11.11500       15.23500      100.04200
O         12.19400       15.58500       99.56600
N         10.50900       14.10500       99.66200
H          9.59800       13.90700      100.04100
C         11.11400       13.08600       98.79900
H         12.15200       13.32900       98.63400
C         11.06700       11.73100       99.52000
H         10.02600       11.40500       99.55000
H         11.62000       10.99400       98.93800
S         11.70000       11.71000      101.23300
C         10.45900       13.07100       97.41200
O          9.25500       12.84600       97.29700
N         11.24200       13.35500       96.36600
H         12.22700       13.52700       96.54500
C         10.74600       13.70100       95.02400
H          9.65600       13.74400       95.04400
C         11.26300       15.10400       94.65600
H         12.35000       15.06800       94.62800
H         10.91200       15.36700       93.65800
C         10.86700       16.22500       95.59000
N         11.47700       17.48000       95.62400
C         10.84600       18.17500       96.58300
H         11.10000       19.18400       96.88300
N          9.87600       17.43000       97.13500
H          9.29400       17.69200       97.93100
C          9.85800       16.20800       96.50900
H          9.18300       15.39200       96.72100
C         11.12200       12.66900       93.95000
O         11.98400       11.81800       94.13500
N         10.47400       12.72100       92.79400
H         10.71600       12.04900       92.08500
H          9.77200       13.42400       92.63500
