95
-1 1
H          1.71500      -72.32100      -12.23900
C          1.95300      -72.15000      -11.19100
H          1.20700      -72.63400      -10.56100
H          1.97400      -71.08300      -10.98100
C          3.30700      -72.74400      -10.88600
O          3.41800      -73.62400      -10.04600
N          4.33700      -72.26200      -11.57200
H          4.17500      -71.53000      -12.24700
C          5.73600      -72.68100      -11.38900
H          5.79100      -73.76800      -11.31000
C          6.56500      -72.24600      -12.61400
H          7.61900      -72.45100      -12.42700
C          6.13900      -72.95600      -13.89800
H          5.12200      -72.67600      -14.17000
H          6.81800      -72.67700      -14.70300
H          6.19000      -74.03300      -13.75000
O          6.40200      -70.86000      -12.83700
H          6.65200      -70.43900      -12.00100
C          6.33000      -72.07500      -10.11000
O          6.75300      -70.91600      -10.11900
N          6.39300      -72.83500       -9.01200
H          5.99900      -73.76600       -9.04700
C          7.01300      -72.38500       -7.75300
H          6.50000      -71.49100       -7.39800
C          6.88600      -73.49100       -6.69700
H          7.41800      -74.37400       -7.04800
H          7.39000      -73.14000       -5.79500
S          5.20400      -73.96800       -6.22500
C          8.50500      -72.04100       -7.92800
O          9.02100      -71.09800       -7.33600
N          9.18200      -72.82000       -8.76600
H          8.68200      -73.63600       -9.11100
C         10.56100      -72.66900       -9.23200
H         11.19000      -72.44900       -8.37000
C         11.01700      -74.02300       -9.82200
H         12.07900      -73.94200      -10.06100
H         10.92900      -74.79300       -9.05400
C         10.28500      -74.49800      -11.09900
H         10.34000      -73.71000      -11.85200
H         10.83200      -75.35800      -11.49300
C          8.81600      -74.92000      -10.90700
O          8.40000      -75.25900       -9.77500
O          8.05600      -74.89900      -11.89700
C         10.77700      -71.51200      -10.23300
O         11.89400      -71.27700      -10.68100
N          9.74500      -70.76800      -10.61300
H          8.83000      -70.92800      -10.21600
H          9.91000      -70.01900      -11.26300
H          7.98800      -82.11000      -11.29700
C          8.82700      -81.43000      -11.43500
H          9.04300      -81.31300      -12.49500
H          9.70000      -81.82200      -10.91700
C          8.46500      -80.08800      -10.84500
O          9.07500      -79.65600       -9.87100
N          7.46500      -79.42700      -11.42300
H          7.00100      -79.83400      -12.22200
C          6.98400      -78.13300      -10.93300
H          7.82400      -77.43800      -10.95100
C          5.89400      -77.58700      -11.86900
H          4.98900      -78.18600      -11.76100
H          5.66400      -76.55900      -11.59000
C          6.31700      -77.62300      -13.32400
O          6.00300      -78.54500      -14.05800
N          7.08500      -76.66300      -13.77300
H          7.41600      -75.93900      -13.12400
H          7.38900      -76.71100      -14.72300
C          6.49600      -78.25100       -9.47900
O          5.78200      -79.19800       -9.13700
N          6.92700      -77.33100       -8.61300
H          7.49300      -76.57100       -8.99300
C          6.68100      -77.32600       -7.16400
H          7.30100      -76.53600       -6.74300
C          5.21400      -76.94800       -6.89900
H          4.58300      -77.73800       -7.30900
H          5.04200      -76.92200       -5.82200
S          4.65500      -75.37100       -7.59700
C          7.08700      -78.61400       -6.40400
O          6.72000      -78.76500       -5.24000
N          7.80700      -79.55600       -7.03000
H          8.08400      -79.38000       -7.98900
C          7.94800      -80.94200       -6.52900
H          7.80700      -80.94600       -5.44800
C          6.86700      -81.85600       -7.13800
H          7.11300      -82.89100       -6.89800
C          5.46300      -81.58000       -6.60100
H          5.13300      -80.58000       -6.88100
H          4.76900      -82.31200       -7.01300
H          5.46500      -81.66400       -5.51400
O          6.81000      -81.72500       -8.54100
H          6.37200      -80.87600       -8.73000
C          9.32200      -81.58000       -6.76200
O          9.66800      -82.54900       -6.09500
N         10.15900      -81.05900       -7.64800
H         11.05700      -81.49300       -7.76800
H          9.85600      -80.30700       -8.25300
