95
-1 1
H          6.04800      -65.01600      -15.05500
C          7.02700      -65.02900      -14.58100
H          7.32300      -64.01500      -14.31700
H          7.76000      -65.45100      -15.26300
C          6.97400      -65.86900      -13.32700
O          7.49100      -65.45200      -12.29600
N          6.33100      -67.03400      -13.39300
H          6.03500      -67.37200      -14.29600
C          6.01900      -67.87200      -12.21600
H          5.53700      -67.23900      -11.47200
C          5.03400      -68.99300      -12.57900
H          4.90100      -69.64900      -11.71700
C          3.66500      -68.44100      -12.97700
H          2.98800      -69.27200      -13.17600
H          3.25900      -67.84100      -12.16400
H          3.74900      -67.83000      -13.87600
O          5.50200      -69.75200      -13.66800
H          6.21800      -70.31800      -13.35400
C          7.23800      -68.47600      -11.51300
O          7.12400      -68.81800      -10.34000
N          8.39100      -68.56900      -12.18200
H          8.40000      -68.31400      -13.16900
C          9.68700      -68.87900      -11.56000
H          9.58000      -68.81800      -10.47700
C         10.11100      -70.31800      -11.89900
H         10.13500      -70.44300      -12.98000
H         11.12900      -70.45700      -11.53300
S          9.09800      -71.63100      -11.16100
C         10.77700      -67.84700      -11.92600
O         11.95600      -68.07000      -11.66200
N         10.39500      -66.72400      -12.54500
H          9.40700      -66.61600      -12.73200
C         11.30800      -65.78100      -13.21000
H         12.34000      -66.05700      -12.98600
C         11.12200      -65.86200      -14.73900
H         10.15900      -65.43200      -15.01300
H         11.89000      -65.23600      -15.19500
C         11.25200      -67.27000      -15.35600
H         11.39700      -67.14900      -16.43200
H         12.15000      -67.74600      -14.95600
C         10.03400      -68.18700      -15.14600
O          8.90600      -67.69200      -14.91100
O         10.19400      -69.42100      -15.22900
C         11.13600      -64.32400      -12.74000
O         11.99200      -63.48200      -12.98600
N         10.05100      -63.98100      -12.05700
H          9.32000      -64.66000      -11.88600
H          9.96000      -63.02800      -11.75000
H          7.19800      -72.57100      -20.84300
C          8.15500      -72.05400      -20.81800
H          8.07500      -71.09800      -21.33300
H          8.91800      -72.66700      -21.29400
C          8.54600      -71.81100      -19.38000
O          9.57400      -72.30800      -18.93100
N          7.72500      -71.04700      -18.66200
H          6.91300      -70.64800      -19.11000
C          7.95500      -70.70800      -17.25600
H          8.90400      -70.17300      -17.19500
C          6.84600      -69.77300      -16.75400
H          5.89000      -70.29500      -16.76000
H          7.07300      -69.48500      -15.72900
C          6.71800      -68.52000      -17.59400
O          6.10000      -68.51100      -18.64700
N          7.31400      -67.43500      -17.17100
H          7.88900      -67.48800      -16.32500
H          7.28200      -66.62900      -17.76100
C          8.06900      -71.95500      -16.36300
O          7.39800      -72.96500      -16.58900
N          8.94000      -71.88800      -15.35400
H          9.43500      -71.00400      -15.22500
C          9.32400      -73.01000      -14.49100
H         10.17600      -72.67600      -13.89900
C          8.18400      -73.33000      -13.51000
H          7.34000      -73.71400      -14.08500
H          8.51200      -74.12800      -12.84200
S          7.59000      -71.95100      -12.49200
C          9.81200      -74.25500      -15.27100
O          9.69300      -75.37400      -14.77800
N         10.30800      -74.06900      -16.50500
H         10.32200      -73.11700      -16.85000
C         10.61700      -75.11300      -17.50600
H         10.73600      -74.56800      -18.44100
C         11.98900      -75.78500      -17.27800
H         12.74000      -75.00400      -17.15900
C         12.10100      -76.74000      -16.09000
H         11.27700      -77.45200      -16.09100
H         13.04700      -77.28100      -16.14300
H         12.08700      -76.17200      -15.16200
O         12.32800      -76.53600      -18.41900
H         11.57800      -77.13300      -18.56400
C          9.46000      -76.09000      -17.80400
O          9.67200      -77.19900      -18.29100
N          8.21400      -75.70600      -17.55700
H          8.03100      -74.78800      -17.17000
H          7.46600      -76.35100      -17.73900
