95
-1 1
H         10.26200      -71.79600      -10.07900
C         10.79700      -72.60900       -9.59200
H         10.71500      -73.51300      -10.19300
H         10.37900      -72.78100       -8.60300
C         12.25400      -72.23200       -9.46000
O         12.78600      -72.23500       -8.35400
N         12.88200      -71.89800      -10.58500
H         12.32600      -71.86000      -11.42700
C         14.32600      -71.62400      -10.74900
H         14.87200      -72.55700      -10.61900
C         14.60300      -71.08600      -12.16700
H         14.36300      -70.02400      -12.19500
C         16.05700      -71.27300      -12.59400
H         16.18800      -70.89100      -13.60600
H         16.71700      -70.72200      -11.92300
H         16.31700      -72.33200      -12.57100
O         13.79400      -71.71800      -13.13500
H         12.98800      -71.17700      -13.19200
C         14.89100      -70.61100       -9.74400
O         16.01900      -70.76900       -9.28400
N         14.09800      -69.60400       -9.36900
H         13.17400      -69.55800       -9.79300
C         14.39600      -68.62200       -8.32200
H         15.23300      -68.98800       -7.72600
C         14.81300      -67.28500       -8.95400
H         13.98000      -66.90600       -9.54300
H         15.00300      -66.57800       -8.14600
S         16.29100      -67.30400       -9.99700
C         13.20700      -68.44700       -7.35300
O         13.04100      -67.39000       -6.74200
N         12.33000      -69.45200       -7.25700
H         12.52200      -70.28500       -7.80300
C         11.01900      -69.36100       -6.59500
H         11.00100      -68.48400       -5.94600
C          9.90000      -69.19100       -7.64400
H          9.78400      -70.11600       -8.20900
H          8.96800      -69.03400       -7.10000
C         10.06300      -68.00400       -8.61500
H          9.08200      -67.79200       -9.04400
H         10.36800      -67.12000       -8.05200
C         11.04000      -68.24600       -9.77900
O         11.34800      -69.40500      -10.12400
O         11.50600      -67.26400      -10.38900
C         10.70000      -70.56400       -5.68800
O          9.82700      -70.48200       -4.83300
N         11.39100      -71.69100       -5.82300
H         11.17400      -72.45900       -5.21200
H         12.08900      -71.77900       -6.54900
H          8.30600      -65.24500       -9.96800
C          8.79800      -65.31700      -10.93500
H          8.12300      -64.97400      -11.71700
H          9.08900      -66.34800      -11.12700
C         10.03500      -64.44900      -10.93600
O         10.25100      -63.70800      -11.88700
N         10.84700      -64.56300       -9.88700
H         10.63900      -65.29400       -9.22600
C         12.09000      -63.80500       -9.69300
H         11.85100      -62.74000       -9.70200
C         12.67900      -64.16600       -8.31700
H         13.00300      -65.20300       -8.34000
H         13.55100      -63.54300       -8.12300
C         11.70900      -63.98700       -7.16300
O         11.05800      -62.97000       -7.00900
N         11.56700      -64.97900       -6.31600
H         12.11200      -65.83100       -6.42600
H         10.92900      -64.83800       -5.55800
C         13.14000      -64.04500      -10.79800
O         13.95300      -63.16300      -11.06700
N         13.12100      -65.21400      -11.44700
H         12.47300      -65.92000      -11.10500
C         13.81200      -65.45500      -12.71800
H         13.83600      -64.50500      -13.25500
C         15.27100      -65.86900      -12.48100
H         15.79200      -65.77600      -13.43400
H         15.73100      -65.16100      -11.79100
S         15.56300      -67.55500      -11.88000
C         13.09000      -66.44300      -13.65500
O         13.34400      -66.41300      -14.85700
N         12.15500      -67.26800      -13.16200
H         12.01200      -67.31100      -12.15500
C         11.26100      -68.07100      -14.02600
H         11.85700      -68.50400      -14.83000
C         10.62800      -69.23800      -13.24000
H          9.96000      -68.83500      -12.47800
C          9.84800      -70.23800      -14.09500
H         10.45800      -70.55900      -14.93900
H          9.58100      -71.10600      -13.49200
H          8.93000      -69.78300      -14.46200
O         11.62200      -70.00800      -12.60400
H         11.58100      -69.73600      -11.65100
C         10.17200      -67.20900      -14.69400
O          9.53500      -67.62400      -15.65500
N          9.92800      -65.98700      -14.22900
H          9.24000      -65.42500      -14.70100
H         10.46200      -65.61400      -13.46000
