113
1 1
H         44.67400        3.94500      142.45200
C         44.42800        4.21000      141.42500
H         44.11800        5.25300      141.38200
H         43.62100        3.57500      141.06400
C         45.64400        4.01800      140.55500
O         46.12800        4.96400      139.93700
N         46.15100        2.79000      140.49400
H         45.70000        2.04400      141.00400
C         47.31600        2.44000      139.67800
H         47.27700        3.04500      138.77500
C         48.61100        2.76200      140.45000
H         48.53300        3.75700      140.89100
H         48.74200        2.03900      141.25600
C         49.83700        2.75100      139.53800
O         49.68500        3.05800      138.33700
O         50.94700        2.43100      139.99900
C         47.31900        0.97500      139.22000
O         46.74700        0.10300      139.87700
N         48.01000        0.68700      138.11400
H         48.46500        1.45600      137.62800
C         48.22700       -0.67400      137.62700
H         47.27200       -1.19600      137.71000
C         48.55300       -0.63900      136.12100
H         48.33400       -1.62400      135.70900
H         47.86200        0.06000      135.64800
S         50.23300       -0.21200      135.58200
C         49.22400       -1.44000      138.53200
O         50.41500       -1.56500      138.23800
N         48.73300       -1.89100      139.69600
H         47.80000       -1.56300      139.92800
C         49.47100       -2.66500      140.72000
H         50.30800       -3.17500      140.24500
C         50.01600       -1.72400      141.82100
H         49.17000       -1.23300      142.30600
H         50.52700       -2.32100      142.57900
C         50.98800       -0.63400      141.33800
H         50.48000       -0.04000      140.58200
H         51.21500        0.02800      142.17500
C         52.31400       -1.19300      140.78600
H         52.89500       -1.59600      141.61700
H         52.12500       -2.01000      140.09300
C         53.15700       -0.13600      140.05800
H         53.42100        0.65900      140.76200
H         54.07800       -0.61000      139.71100
N         52.43200        0.44900      138.90600
H         51.94500       -0.26100      138.36500
H         51.73700        1.10700      139.26400
H         53.04000        1.01800      138.32400
C         48.65000       -3.79100      141.36700
O         49.20800       -4.63000      142.05600
N         47.34300       -3.85000      141.16000
H         46.83400       -4.60200      141.59500
H         46.88200       -3.15700      140.59900
H         46.84600        8.38600      133.26100
C         47.76200        8.03400      133.73300
H         48.13300        8.79900      134.41400
H         48.51400        7.83000      132.97300
C         47.47600        6.77300      134.51200
O         47.70200        6.72600      135.71800
N         46.99100        5.73700      133.82400
H         46.81000        5.86600      132.84100
C         46.61500        4.45600      134.44000
H         45.85700        4.65500      135.20000
C         45.99100        3.55300      133.35600
H         45.09900        4.04400      132.96400
H         46.70500        3.45100      132.53700
C         45.60700        2.13400      133.82900
H         46.49500        1.61400      134.18700
C         44.55900        2.15200      134.94400
H         44.27500        1.13100      135.19600
H         44.96700        2.62000      135.83900
H         43.67300        2.69800      134.61900
C         45.03900        1.34100      132.65300
H         44.79800        0.32800      132.97400
H         44.13600        1.82000      132.27400
H         45.77800        1.28300      131.85300
C         47.79300        3.76400      135.14800
O         47.62200        3.25600      136.25300
N         48.98300        3.79100      134.54300
H         49.05900        4.28300      133.66800
C         50.20100        3.18200      135.07800
H         49.95500        2.56700      135.94200
C         50.81800        2.26400      134.01800
H         50.86300        2.79500      133.06500
H         51.84400        2.03800      134.31100
S         49.97300        0.68400      133.77500
C         51.23300        4.22400      135.52500
O         51.63800        5.07600      134.73600
N         51.69800        4.11700      136.77400
H         51.21200        3.46500      137.39000
C         52.86900        4.81500      137.32600
H         53.24100        5.53000      136.59000
C         52.48600        5.59000      138.60700
H         51.91400        4.94400      139.27200
H         53.40700        5.84600      139.13300
C         51.73500        6.92000      138.37200
H         51.70700        7.46200      139.31900
H         52.31500        7.52200      137.67200
C         50.29400        6.82100      137.84300
H         49.92200        7.82900      137.65000
H         50.29000        6.30000      136.89000
C         49.34700        6.14000      138.83800
H         49.90000        5.39600      139.41700
H         48.96600        6.89500      139.53100
N         48.22500        5.46700      138.14800
H         47.44600        5.30700      138.78300
H         47.89200        6.01500      137.35900
H         48.52800        4.55400      137.80100
C         54.00700        3.81500      137.58400
O         53.79000        2.61300      137.73900
N         55.23800        4.29600      137.64100
H         55.40300        5.28000      137.51000
H         55.99700        3.65500      137.80300
