113
1 1
H         34.69100        4.42400      123.43100
C         34.25800        5.34500      123.81900
H         33.60700        5.11800      124.66100
H         33.68400        5.83700      123.03600
C         35.36400        6.26300      124.27600
O         35.50100        7.37600      123.77300
N         36.16600        5.80600      125.23200
H         36.01900        4.87600      125.59600
C         37.29300        6.56700      125.77800
H         37.72700        7.15200      124.96900
C         36.79000        7.51900      126.87800
H         35.88600        8.02600      126.53500
H         36.54200        6.94600      127.77300
C         37.82400        8.59000      127.20900
O         38.04900        8.86900      128.40400
O         38.39800        9.16200      126.25700
C         38.40500        5.66500      126.32700
O         38.12700        4.60500      126.88400
N         39.66000        6.11700      126.23300
H         39.79700        6.99800      125.74700
C         40.87000        5.37200      126.62100
H         40.88800        4.44300      126.04900
C         42.08500        6.21500      126.21100
H         42.96600        5.57100      126.22500
H         41.94700        6.56400      125.18900
S         42.43000        7.63700      127.28800
C         40.97100        4.98300      128.11500
O         41.92600        4.32700      128.52100
N         40.00500        5.41600      128.93100
H         39.25600        5.92300      128.48300
C         39.92000        5.24800      130.39000
H         40.45900        4.33900      130.66300
C         40.61900        6.43400      131.08800
H         40.49600        6.34500      132.16900
H         41.68800        6.39200      130.86900
C         40.07200        7.79000      130.61300
H         40.35700        7.93900      129.57100
H         38.98400        7.77700      130.68200
C         40.60200        8.97400      131.43200
H         40.13000        8.97100      132.41700
H         41.68000        8.86500      131.56500
C         40.33400       10.30900      130.72000
H         40.66900       11.12700      131.36300
H         40.93300       10.33000      129.80500
N         38.90600       10.48900      130.36300
H         38.76100       11.33600      129.81800
H         38.60600        9.74000      129.73000
H         38.29800       10.47600      131.16500
C         38.47100        5.02900      130.86200
O         38.11300        5.36100      131.98400
N         37.59800        4.52700      129.99900
H         36.65100        4.38900      130.30700
H         37.89500        4.27200      129.06700
H         39.35300       11.93800      119.91500
C         40.27800       11.36500      119.95100
H         41.08300       11.99900      120.31800
H         40.51700       11.00300      118.95200
C         40.09800       10.19200      120.88400
O         39.04900       10.04900      121.50600
N         41.12700        9.35000      120.99700
H         41.94800        9.52300      120.43800
C         41.09100        8.15300      121.85100
H         40.25800        7.52400      121.53400
C         42.39900        7.35100      121.70500
H         43.23100        7.97700      122.03100
H         42.35100        6.49200      122.37700
C         42.70300        6.83700      120.28300
H         42.77400        7.68300      119.60000
C         44.04500        6.10700      120.28200
H         44.28300        5.77300      119.27100
H         44.83500        6.77900      120.61800
H         44.00600        5.24000      120.94200
C         41.63300        5.87300      119.76800
H         40.68200        6.39000      119.64900
H         41.92900        5.48300      118.79400
H         41.51100        5.04000      120.46100
C         40.83000        8.51000      123.32300
O         39.95200        7.91600      123.94500
N         41.53300        9.51600      123.84800
H         42.19200        9.98800      123.25000
C         41.30200       10.09800      125.17000
H         40.71800        9.40900      125.77600
C         42.64600       10.30900      125.87600
H         43.24200       11.01100      125.29000
H         42.45500       10.77100      126.84500
S         43.64200        8.82200      126.16300
C         40.54400       11.43400      125.07100
O         40.85500       12.24900      124.20300
N         39.59800       11.69400      125.98300
H         39.29900       10.91600      126.57200
C         38.86800       12.97500      126.10100
H         39.54300       13.76900      125.77400
C         37.67000       12.97500      125.12900
H         37.22800       13.97200      125.09400
H         38.06200       12.77500      124.13300
C         36.56300       11.96200      125.49100
H         36.98400       11.12500      126.03500
H         35.85700       12.44800      126.16600
C         35.78800       11.41200      124.28000
H         35.03300       10.70900      124.63500
H         35.26900       12.24200      123.79900
C         36.66400       10.71500      123.22500
H         36.03900       10.45400      122.36700
H         37.42300       11.41300      122.86400
N         37.33000        9.48900      123.72200
H         36.66400        8.72300      123.80100
H         38.05400        9.20700      123.06700
H         37.77700        9.60700      124.63300
C         38.47200       13.32100      127.54300
O         38.59100       12.51300      128.46200
N         38.01100       14.54000      127.77000
H         37.92700       15.19700      127.01200
H         37.75100       14.79100      128.71000
