113
1 1
H         42.88300        6.06000      130.66700
C         42.22300        5.34100      131.15000
H         42.77500        4.42800      131.36700
H         41.38600        5.11400      130.49200
C         41.70300        5.92800      132.43700
O         40.49500        6.07300      132.61300
N         42.61100        6.26800      133.34600
H         43.59000        6.13100      133.13400
C         42.31200        6.89600      134.63700
H         41.50200        7.61000      134.49000
C         41.84400        5.81900      135.63600
H         41.26300        5.06000      135.10900
H         42.71100        5.32600      136.07700
C         40.96700        6.39800      136.74400
O         39.77500        6.03200      136.82100
O         41.43900        7.23700      137.54300
C         43.53200        7.66500      135.17600
O         44.66700        7.37800      134.80600
N         43.30200        8.61700      136.08000
H         42.35000        8.72200      136.40300
C         44.34800        9.27800      136.86600
H         45.14400        9.61900      136.20100
C         43.71700       10.48600      137.57300
H         43.08600       10.11500      138.38100
H         44.50900       11.09000      138.01900
S         42.69600       11.54100      136.51400
C         44.95600        8.33800      137.92500
O         46.10300        8.50500      138.32800
N         44.17400        7.35700      138.39900
H         43.23500        7.29900      138.01200
C         44.52900        6.37600      139.43900
H         45.14100        6.87800      140.19100
C         43.24200        5.86800      140.12400
H         42.61600        5.38000      139.37600
H         43.51400        5.12800      140.88000
C         42.45200        6.99500      140.81700
H         43.10200        7.47500      141.55000
H         42.16000        7.75100      140.08800
C         41.19200        6.49500      141.54500
H         41.49800        5.79700      142.32600
H         40.71300        7.34600      142.03200
C         40.16200        5.79300      140.64400
H         40.62200        4.90300      140.20600
H         39.32300        5.46700      141.26400
N         39.66600        6.67600      139.56500
H         39.26200        7.54600      139.89500
H         40.40100        6.90800      138.89700
H         38.95000        6.23700      138.98900
C         45.40300        5.23100      138.89300
O         45.12100        4.06000      139.11200
N         46.44500        5.54700      138.14200
H         46.65900        6.52100      137.97800
H         47.00800        4.80600      137.76100
H         35.40400       13.35300      134.89000
C         36.37100       13.51600      134.41500
H         36.91000       14.29800      134.94600
H         36.21600       13.81300      133.37900
C         37.16500       12.23300      134.45600
O         36.69300       11.23000      134.98100
N         38.39000       12.26700      133.92700
H         38.69700       13.13600      133.51700
C         39.25700       11.08800      133.76300
H         38.79800       10.43300      133.02200
C         40.61700       11.57400      133.21600
H         40.45100       12.08800      132.26800
H         41.02900       12.29900      133.91900
C         41.67200       10.47000      132.99700
H         41.84300        9.93700      133.93000
C         41.24000        9.46900      131.92500
H         41.01500        9.98800      130.99300
H         42.04700        8.75900      131.74500
H         40.36400        8.91400      132.25500
C         42.99600       11.09500      132.56500
H         43.75100       10.31600      132.45300
H         42.87800       11.61800      131.61600
H         43.34000       11.79700      133.32500
C         39.42800       10.26500      135.05400
O         39.45200        9.03500      135.00200
N         39.49100       10.92900      136.21100
H         39.46200       11.93600      136.16900
C         39.74400       10.31800      137.51900
H         40.51900        9.56500      137.38100
C         40.30500       11.38800      138.47300
H         39.47200       11.96500      138.87700
H         40.76800       10.87000      139.31500
S         41.51900       12.57800      137.81600
C         38.52800        9.59200      138.14900
O         38.58000        9.24000      139.33000
N         37.43700        9.39900      137.39000
H         37.48700        9.76700      136.44600
C         36.12300        8.85700      137.79900
H         35.64600        9.63100      138.40200
C         35.23300        8.66500      136.54400
H         34.33800        8.10100      136.81100
H         34.89400        9.65600      136.23800
C         35.88200        8.01500      135.29900
H         35.19800        8.14700      134.46000
H         36.79200        8.55400      135.04300
C         36.19000        6.51400      135.41500
H         36.70000        6.29200      136.34800
H         35.25000        5.96100      135.39700
C         37.08100        6.03400      134.26200
H         37.03500        4.94200      134.22000
H         36.69800        6.42900      133.31700
N         38.48800        6.44900      134.46700
H         38.59500        7.45600      134.53600
H         38.85500        6.08500      135.34900
H         39.10400        6.13200      133.72000
C         36.14000        7.60700      138.69800
O         37.06200        6.80000      138.69600
N         35.08700        7.41400      139.47600
H         35.07100        6.59800      140.06500
H         34.32700        8.07400      139.47500
