91
0 1
H         34.27900       18.50600        4.44400
C         34.17100       17.49100        4.06500
H         35.05100       17.22000        3.48400
H         34.05000       16.80200        4.89900
C         32.94700       17.42100        3.18300
O         32.27000       18.42500        2.99700
N         32.67900       16.23900        2.63200
H         33.27000       15.46300        2.88200
C         31.45900       15.93900        1.86100
H         31.17500       16.82400        1.29700
C         31.71100       14.80100        0.84900
H         32.08700       13.92800        1.38600
C         30.45300       14.38100        0.07600
H         30.71000       13.62800       -0.67000
H         29.71800       13.94400        0.75100
H         30.01500       15.24400       -0.42700
C         32.76400       15.22400       -0.18600
H         32.94400       14.40800       -0.88600
H         32.41300       16.09700       -0.73800
H         33.70600       15.46600        0.30500
C         30.29800       15.61400        2.80500
O         30.49300       14.96300        3.83100
N         29.08600       16.04800        2.45800
H         28.99200       16.54300        1.57700
C         27.87000       15.82300        3.24400
H         27.96300       14.86900        3.76700
C         27.78900       16.92600        4.31900
H         26.91700       16.75600        4.94900
H         28.66100       16.79500        4.96200
S         27.78900       18.67300        3.80700
C         26.62600       15.69400        2.34000
O         26.75100       15.52100        1.12600
N         25.41800       15.77200        2.90400
H         25.34400       15.94000        3.89700
C         24.16200       15.78800        2.15100
H         24.34200       16.22900        1.17200
C         23.67700       14.34700        1.94400
H         24.43700       13.77300        1.41200
H         23.47800       13.87800        2.90900
H         22.76100       14.35100        1.35200
C         23.10500       16.65300        2.85600
O         23.09500       16.76500        4.07800
N         22.20200       17.26600        2.10400
H         22.24600       17.18000        1.09500
H         21.50500       17.83300        2.55500
H         30.50000       20.53000        4.28900
C         30.49700       21.48600        3.76700
H         31.50400       21.89600        3.74900
H         29.82200       22.17800        4.26700
C         30.02400       21.27300        2.34900
O         29.06200       21.89700        1.91300
N         30.69000       20.37600        1.62800
H         31.42800       19.85500        2.08900
C         30.33600       19.98300        0.26000
H         30.04600       20.87900       -0.29000
C         31.56600       19.38600       -0.44500
H         31.89200       18.49600        0.09000
H         31.27500       19.07500       -1.44900
C         32.74000       20.34100       -0.56100
C         33.81100       20.26800        0.35100
H         33.80200       19.52700        1.13600
C         34.89200       21.16100        0.24600
H         35.71000       21.10400        0.94900
C         34.90600       22.13200       -0.77100
H         35.73500       22.82000       -0.85100
C         33.83800       22.20900       -1.68300
H         33.84800       22.95600       -2.46400
C         32.75700       21.31500       -1.57800
H         31.93700       21.37900       -2.27900
C         29.11700       19.04300        0.26300
O         29.22700       17.83800        0.03000
N         27.95000       19.59000        0.60200
H         27.95100       20.56800        0.87000
C         26.70100       18.84100        0.70600
H         26.93200       17.88500        1.15400
C         25.73500       19.56700        1.65000
H         25.88700       20.64200        1.54700
H         24.71200       19.36000        1.33000
S         25.84000       19.13100        3.41200
C         26.05500       18.56800       -0.66000
O         25.71700       19.49400       -1.39600
N         25.80200       17.29300       -0.96100
H         26.14200       16.57400       -0.32900
C         24.95900       16.88300       -2.08400
H         25.30200       17.38700       -2.98900
H         25.05000       15.80800       -2.23500
C         23.47900       17.21800       -1.85200
O         22.95200       17.07100       -0.75100
N         22.77400       17.65500       -2.88600
H         21.80600       17.88700       -2.73800
H         23.22000       17.80100       -3.77600
