91
0 1
H         18.36500       20.61600        2.61500
C         17.93400       21.26800        3.37100
H         18.42700       22.23800        3.34300
H         16.87000       21.39000        3.17700
C         18.12100       20.65400        4.73700
O         18.77100       21.24500        5.59100
N         17.57000       19.46000        4.95200
H         17.03700       19.05600        4.18700
C         17.55700       18.75000        6.25400
H         17.37800       19.51000        7.01500
C         16.37000       17.76200        6.35700
H         16.36300       17.34600        7.36400
C         15.03500       18.49800        6.17200
H         14.21000       17.81800        6.38100
H         14.97700       19.33800        6.86500
H         14.93800       18.86700        5.15000
C         16.41300       16.59300        5.36400
H         15.52200       15.97700        5.48100
H         16.46300       16.95800        4.34200
H         17.28200       15.96700        5.56200
C         18.91200       18.12200        6.64500
O         18.97600       17.01300        7.16800
N         20.01400       18.84800        6.42600
H         19.86200       19.78800        6.07300
C         21.40100       18.36200        6.42300
H         21.53800       17.72900        5.55300
C         22.33000       19.57200        6.26900
H         22.17400       20.23300        7.12300
H         23.36300       19.22400        6.31000
S         22.14500       20.56400        4.76300
C         21.85400       17.53900        7.64700
O         22.77700       16.73700        7.51600
N         21.23500       17.72300        8.81700
H         20.45200       18.35600        8.83800
C         21.53400       16.96400       10.03400
H         22.61700       16.92900       10.16600
C         20.93100       17.72900       11.22000
H         19.84500       17.77300       11.12500
H         21.18400       17.21500       12.14900
H         21.33600       18.74100       11.25700
C         21.04000       15.49900       10.00800
O         21.48600       14.68500       10.80600
N         20.13100       15.12500        9.11500
H         19.76000       15.79100        8.44900
H         19.83500       14.16300        9.11000
H         25.60200       15.57400        5.38800
C         25.14400       16.37800        4.81500
H         25.84500       16.74400        4.06700
H         24.86200       17.18800        5.48500
C         23.91100       15.85100        4.12200
O         23.83600       15.85200        2.89900
N         22.92200       15.42600        4.90300
H         23.05600       15.50400        5.90500
C         21.64900       14.85500        4.43700
H         21.87000       14.16700        3.62000
C         21.02400       14.03900        5.58200
H         20.73400       14.72200        6.38100
H         20.11400       13.56000        5.21800
C         21.92900       12.96200        6.15600
C         22.08300       11.73800        5.47700
H         21.55500       11.56300        4.55100
C         22.92400       10.74000        6.00200
H         23.04000        9.80100        5.48000
C         23.61100       10.96200        7.20800
H         24.25400       10.19300        7.61400
C         23.46000       12.18300        7.88800
H         23.98300       12.35400        8.81900
C         22.62300       13.18200        7.36200
H         22.51600       14.11700        7.89000
C         20.67700       15.91700        3.87300
O         19.50300       15.95300        4.22800
N         21.16900       16.84200        3.04600
H         22.13900       16.72500        2.76800
C         20.52200       18.11000        2.68500
H         20.12000       18.54300        3.60000
C         21.60100       19.06900        2.16400
H         22.01600       18.65000        1.24500
H         21.13100       20.01800        1.90400
S         22.97700       19.42600        3.29200
C         19.32500       17.99800        1.70800
O         19.23300       18.75300        0.74100
N         18.39100       17.07400        1.94700
H         18.50600       16.49800        2.77500
C         17.14300       16.96500        1.18700
H         17.38000       16.90100        0.12500
H         16.61900       16.05500        1.47700
C         16.20600       18.15900        1.41600
O         16.14600       18.72800        2.50200
N         15.44200       18.54900        0.40600
H         14.83200       19.33700        0.54900
H         15.51100       18.09400       -0.48900
