96
0 1
H        -33.07000       19.48400      -16.77500
C        -33.42500       19.08300      -15.82700
H        -33.88800       18.11100      -15.99200
H        -34.15100       19.76400      -15.38900
C        -32.25700       18.92200      -14.88400
O        -31.97500       17.81500      -14.43500
N        -31.58200       20.02600      -14.57500
H        -31.88500       20.91000      -14.95900
C        -30.44400       20.07400      -13.65900
H        -30.61400       19.35800      -12.85700
C        -29.17200       19.67900      -14.42500
H        -29.28600       18.68100      -14.84800
H        -28.99200       20.39200      -15.23200
H        -28.31500       19.68800      -13.75200
C        -30.28900       21.46600      -13.02400
O        -30.74600       22.45500      -13.59400
N        -29.62600       21.52800      -11.86600
H        -29.33200       20.65700      -11.44300
C        -29.20900       22.77500      -11.22100
H        -29.84000       23.58900      -11.58100
C        -29.41200       22.68500       -9.69900
H        -28.81700       21.86800       -9.29700
H        -29.03500       23.61100       -9.26100
S        -31.11800       22.47500       -9.12500
C        -27.76400       23.13100      -11.62100
O        -27.53600       23.79700      -12.62600
N        -26.76700       22.67500      -10.85800
H        -26.99000       22.16500      -10.00500
C        -25.34900       22.88800      -11.15800
H        -25.23000       23.94300      -11.41200
C        -24.48800       22.63000       -9.90400
H        -23.48500       23.00400      -10.11400
H        -24.88100       23.22700       -9.07900
C        -24.34600       21.16700       -9.44000
H        -23.88200       20.58600      -10.24000
H        -23.66100       21.14900       -8.59100
C        -25.65800       20.49300       -9.01400
O        -25.78800       19.26000       -9.19400
O        -26.57800       21.16800       -8.50300
C        -24.86700       22.07500      -12.37700
O        -25.26000       20.92900      -12.59700
N        -23.96700       22.63500      -13.17500
H        -23.65300       23.57600      -13.00600
H        -23.65100       22.11700      -13.97900
H        -34.54200       17.26000      -10.93900
C        -33.74200       17.32800      -11.67400
H        -33.68200       18.34400      -12.06000
H        -33.93300       16.63600      -12.49300
C        -32.43200       16.97300      -11.01300
O        -32.38000       16.78500       -9.80200
N        -31.35500       16.88700      -11.79800
H        -31.48900       17.06500      -12.79100
C        -29.99700       16.62500      -11.29400
H        -30.06300       15.79800      -10.58500
C        -29.08900       16.18700      -12.46400
H        -29.67600       15.53700      -13.11600
H        -28.78800       17.04800      -13.06100
C        -27.85100       15.37300      -12.03800
H        -28.18400       14.55900      -11.39300
H        -27.42900       14.91700      -12.93400
C        -26.71600       16.12400      -11.31800
H        -27.08300       16.58000      -10.39700
H        -25.96900       15.38400      -11.02500
C        -26.01600       17.16100      -12.21200
H        -24.94100       16.96000      -12.19500
H        -26.36500       17.04900      -13.24200
N        -26.25300       18.53900      -11.73700
H        -25.93600       18.65800      -10.77300
H        -25.77500       19.25300      -12.28300
H        -27.24000       18.77000      -11.71300
C        -29.48800       17.85400      -10.53400
O        -28.92400       18.76900      -11.13800
N        -29.67600       17.87000       -9.22100
H        -30.21800       17.11700       -8.81500
C        -29.34000       18.98600       -8.33800
H        -28.69300       19.69100       -8.85900
C        -30.64100       19.70600       -7.95600
H        -31.31400       18.98000       -7.49400
H        -30.42000       20.47200       -7.21100
S        -31.51400       20.48700       -9.34300
C        -28.58700       18.48900       -7.09600
O        -28.96000       17.47500       -6.50900
N        -27.53200       19.20200       -6.70500
H        -27.24500       19.97300       -7.30400
C        -26.65900       18.85500       -5.57200
H        -27.27300       18.44000       -4.77300
C        -25.66200       17.77000       -6.00700
H        -25.09600       17.44400       -5.13300
H        -26.20900       16.91200       -6.39900
O        -24.75300       18.23600       -6.98800
H        -25.24400       18.50900       -7.79300
C        -25.90200       20.05300       -4.97600
O        -25.42600       19.98100       -3.85000
N        -25.80600       21.18400       -5.66700
H        -26.18000       21.24900       -6.60500
H        -25.31200       21.95300       -5.24800
