96
0 1
H        -28.87100        6.75100       -4.05400
C        -28.00400        6.58900       -3.41500
H        -27.10300        6.58500       -4.02700
H        -28.10700        5.63500       -2.89900
C        -27.91900        7.70600       -2.40400
O        -28.73200        8.62500       -2.42300
N        -26.92400        7.64800       -1.51900
H        -26.30100        6.85700       -1.54900
C        -26.70700        8.67100       -0.48900
H        -27.61000        8.75200        0.11900
C        -25.55900        8.20800        0.41700
H        -25.80700        7.24800        0.87200
H        -24.63700        8.10900       -0.15900
H        -25.40300        8.94100        1.21000
C        -26.42700       10.06500       -1.08700
O        -26.96000       11.06400       -0.60500
N        -25.67800       10.11700       -2.19000
H        -25.34700        9.24900       -2.58400
C        -25.34800       11.32100       -2.95000
H        -26.06000       12.11500       -2.71600
C        -23.94900       11.78700       -2.53200
H        -23.95000       11.97000       -1.45700
H        -23.25000       10.97300       -2.73100
S        -23.29600       13.26800       -3.34800
C        -25.43600       11.02000       -4.45300
O        -25.07800        9.92500       -4.88500
N        -25.93900       11.97800       -5.22600
H        -26.33600       12.77800       -4.73900
C        -26.34700       11.81800       -6.62800
H        -25.91800       10.89200       -7.01500
C        -27.88300       11.67100       -6.69300
H        -28.15100       11.43800       -7.72500
H        -28.18800       10.81400       -6.08800
C        -28.70100       12.90500       -6.26100
H        -28.22500       13.81800       -6.62200
H        -29.68300       12.84200       -6.73500
C        -28.90000       12.99200       -4.74200
O        -30.00800       12.71300       -4.23400
O        -27.95500       13.34700       -4.00400
C        -25.82300       12.93400       -7.55600
O        -26.21200       13.02700       -8.71200
N        -24.93600       13.80300       -7.08400
H        -24.58700       13.70300       -6.14600
H        -24.61200       14.53300       -7.69800
H        -32.06300       14.72200       -4.47100
C        -31.42300       15.53300       -4.81400
H        -32.03500       16.33000       -5.23300
H        -30.74200       15.15500       -5.57400
C        -30.62200       16.07800       -3.65500
O        -30.44300       17.28500       -3.55400
N        -30.10700       15.19900       -2.79200
H        -30.17000       14.21900       -3.05800
C        -29.32900       15.57900       -1.59300
H        -29.92400       16.26200       -0.98500
C        -28.95500       14.34500       -0.74600
H        -28.41900       13.62200       -1.35800
H        -28.25500       14.68300        0.02000
C        -30.12800       13.67600       -0.00100
H        -29.71600       13.09000        0.82200
H        -30.73100       14.46700        0.44600
C        -31.06600       12.75600       -0.80700
H        -31.98300       12.64800       -0.22600
H        -31.35100       13.21600       -1.75200
C        -30.53100       11.33800       -1.05700
H        -30.23200       10.89100       -0.10500
H        -31.34900       10.74100       -1.46900
N        -29.40000       11.30200       -2.00700
H        -29.61300       11.83900       -2.84900
H        -28.55100       11.68200       -1.60000
H        -29.20100       10.35000       -2.29900
C        -28.05900       16.35300       -1.96300
O        -27.70300       17.31400       -1.29100
N        -27.40700       15.95000       -3.05000
H        -27.72700       15.08500       -3.47600
C        -26.24500       16.60900       -3.64300
H        -25.78500       17.25300       -2.89200
C        -25.22400       15.52300       -4.00500
H        -25.72700       14.74500       -4.57700
H        -24.44700       15.96000       -4.63400
S        -24.40400       14.78500       -2.56800
C        -26.59100       17.53000       -4.83500
O        -25.70400       17.85900       -5.62000
N        -27.85300       17.95200       -5.00100
H        -28.54400       17.69100       -4.30600
C        -28.31700       18.78800       -6.12900
H        -27.84100       18.40700       -7.03300
C        -29.83000       18.61000       -6.31900
H        -30.06100       17.54800       -6.40000
H        -30.36000       19.02900       -5.46200
O        -30.26200       19.25900       -7.49600
H        -30.05900       20.20000       -7.37600
C        -27.91500       20.27800       -6.02400
O        -28.69600       21.17800       -6.32300
N        -26.70600       20.58400       -5.57400
H        -26.45200       21.55400       -5.49700
H        -26.04800       19.84100       -5.38500
