96
0 1
H        -30.97300       11.06400       -4.66000
C        -31.62800       11.14900       -5.52700
H        -32.62100       11.45100       -5.19800
H        -31.68200       10.18900       -6.03700
C        -31.07000       12.19000       -6.46600
O        -30.03800       12.79100       -6.18600
N        -31.75100       12.42400       -7.58600
H        -32.57700       11.87900       -7.77200
C        -31.30800       13.38600       -8.59900
H        -30.30400       13.11500       -8.92800
C        -32.24400       13.27300       -9.80900
H        -31.91600       13.96400      -10.58700
H        -32.20900       12.26000      -10.21100
H        -33.26800       13.51900       -9.52400
C        -31.25700       14.83700       -8.07400
O        -30.32700       15.58100       -8.38600
N        -32.23100       15.24500       -7.26000
H        -32.92600       14.57900       -6.95800
C        -32.46700       16.64600       -6.91200
H        -31.54300       17.21800       -7.01500
C        -33.51300       17.20600       -7.88900
H        -34.44700       16.66000       -7.74400
H        -33.70500       18.25100       -7.64400
S        -33.06100       17.09500       -9.64700
C        -32.94500       16.77400       -5.46100
O        -33.85900       16.06500       -5.04900
N        -32.34100       17.68900       -4.70500
H        -31.51800       18.15300       -5.08800
C        -32.56500       17.88600       -3.26400
H        -32.57200       16.91500       -2.76700
C        -31.39600       18.71500       -2.69000
H        -31.27700       19.62800       -3.27600
H        -31.65100       19.01300       -1.67200
C        -30.04800       17.97200       -2.61400
H        -29.32600       18.62900       -2.12400
H        -30.18000       17.09700       -1.97400
C        -29.46400       17.53100       -3.96500
O        -29.62000       18.24200       -4.98900
O        -28.85700       16.44100       -4.02900
C        -33.91100       18.55600       -2.91500
O        -34.30300       18.60600       -1.75600
N        -34.65200       19.08000       -3.88400
H        -34.33800       19.01900       -4.83600
H        -35.53100       19.50000       -3.63400
H        -29.57000       12.14400      -13.97600
C        -29.21500       13.17400      -13.99000
H        -29.91200       13.79200      -14.55400
H        -28.23000       13.21300      -14.45000
C        -29.12700       13.68400      -12.57100
O        -29.44000       12.95600      -11.63400
N        -28.70600       14.94100      -12.40900
H        -28.47500       15.48100      -13.23100
C        -28.55300       15.59900      -11.10400
H        -29.27400       15.15300      -10.42500
C        -27.12800       15.33100      -10.57200
H        -26.82400       14.31300      -10.82000
H        -26.43600       16.00700      -11.07900
C        -26.99100       15.53200       -9.05300
H        -25.99100       15.91300       -8.84200
H        -27.71300       16.27400       -8.72700
C        -27.18500       14.22800       -8.26000
H        -28.14100       13.76900       -8.51500
H        -26.39100       13.53300       -8.54100
C        -27.10300       14.46300       -6.74300
H        -26.89700       13.51300       -6.24500
H        -26.27700       15.14900       -6.53300
N        -28.36200       15.02300       -6.20900
H        -28.27800       15.34900       -5.24100
H        -28.63200       15.86200       -6.70900
H        -29.11500       14.34400       -6.22900
C        -28.84000       17.10300      -11.21300
O        -28.31600       17.74500      -12.11700
N        -29.62400       17.67600      -10.29600
H        -30.04900       17.08300       -9.59200
C        -29.84900       19.13200      -10.23200
H        -29.97700       19.52400      -11.24300
C        -31.12100       19.43900       -9.42900
H        -31.05500       18.97000       -8.44700
H        -31.14400       20.51800       -9.26400
S        -32.70700       19.01800      -10.19300
C        -28.69100       19.91400       -9.58000
O        -28.62200       21.13300       -9.70800
N        -27.83500       19.23200       -8.81800
H        -27.98100       18.23700       -8.75000
C        -27.01200       19.79300       -7.73200
H        -27.63100       20.50600       -7.18600
C        -26.64700       18.66200       -6.75700
H        -25.77600       18.12900       -7.14200
H        -26.39900       19.07900       -5.77900
O        -27.71300       17.73300       -6.63900
H        -28.36900       18.05500       -5.96300
C        -25.75200       20.56100       -8.18100
O        -24.71600       20.50700       -7.53000
N        -25.78500       21.25200       -9.31100
H        -26.65700       21.33200       -9.81600
H        -24.95700       21.74500       -9.60100
