96
0 1
H        -25.96100        8.53200      -10.76600
C        -25.12800        8.11600      -10.20400
H        -24.49600        7.52900      -10.86900
H        -25.49700        7.48200       -9.40000
C        -24.30600        9.24000       -9.61800
O        -23.13000        9.36700       -9.92800
N        -24.93100       10.05200       -8.76800
H        -25.89100        9.85700       -8.53500
C        -24.29300       11.16800       -8.06700
H        -23.25900       10.89900       -7.84400
C        -24.28700       12.40400       -8.98000
H        -25.30800       12.68800       -9.23700
H        -23.80800       13.24000       -8.46900
H        -23.73100       12.18700       -9.89300
C        -25.00900       11.46900       -6.74000
O        -26.22800       11.29900       -6.64800
N        -24.25300       11.95900       -5.75500
H        -23.27400       12.11300       -5.94400
C        -24.70600       12.33600       -4.41400
H        -25.79500       12.40200       -4.37800
C        -24.22200       11.28000       -3.40700
H        -23.14300       11.17000       -3.52100
H        -24.39800       11.66000       -2.40000
S        -24.96400        9.62900       -3.50600
C        -24.10800       13.70200       -4.04400
O        -22.88800       13.82400       -3.92800
N        -24.93400       14.73100       -3.85800
H        -25.92700       14.58400       -4.00500
C        -24.49000       16.09500       -3.52400
H        -23.53900       16.27600       -4.02800
C        -25.48000       17.15600       -4.04800
H        -26.43800       17.05000       -3.54300
H        -25.08300       18.14000       -3.79300
C        -25.69500       17.13100       -5.57100
H        -26.26000       18.02200       -5.85100
H        -24.72100       17.18500       -6.06300
C        -26.46300       15.89700       -6.06000
O        -27.37100       15.40500       -5.34700
O        -26.15100       15.37200       -7.15100
C        -24.20900       16.24600       -2.01600
O        -24.81400       17.05700       -1.32000
N        -23.32600       15.42500       -1.46400
H        -23.15100       15.49000       -0.47600
H        -22.86100       14.74100       -2.04700
H        -33.57400       15.31000       -2.33100
C        -32.88800       14.69100       -1.75600
H        -33.39400       14.32000       -0.86500
H        -32.02000       15.27600       -1.45900
C        -32.44200       13.51600       -2.59300
O        -32.55700       12.37200       -2.16700
N        -31.88900       13.78600       -3.77800
H        -31.71900       14.75900       -4.00000
C        -31.32400       12.77400       -4.69000
H        -31.98600       11.90700       -4.70900
C        -31.24900       13.37400       -6.11100
H        -32.22700       13.77200       -6.38900
H        -30.55100       14.21100       -6.08700
C        -30.82600       12.34000       -7.17900
H        -30.12500       11.61900       -6.76200
H        -31.70900       11.77300       -7.47800
C        -30.17700       12.94400       -8.43700
H        -29.83300       12.12200       -9.06700
H        -30.94100       13.48600       -8.99600
C        -28.99500       13.90100       -8.19600
H        -28.50900       14.11700       -9.15100
H        -29.38000       14.84900       -7.81000
N        -27.98700       13.39100       -7.23800
H        -27.56100       12.50400       -7.46800
H        -27.23700       14.08000       -7.13500
H        -28.35200       13.32100       -6.29100
C        -29.95600       12.29900       -4.17100
O        -28.93600       12.54800       -4.80500
N        -29.91100       11.67600       -2.99100
H        -30.79200       11.53100       -2.50900
C        -28.65600       11.45900       -2.25000
H        -28.92600       11.05400       -1.27400
C        -27.83100       10.37900       -2.97700
H        -28.48700        9.55100       -3.24300
H        -27.45000       10.80500       -3.90500
S        -26.42100        9.68800       -2.08300
C        -27.91100       12.79400       -1.97100
O        -26.68500       12.86100       -1.92400
N        -28.67600       13.88400       -1.85200
H        -29.67300       13.76000       -1.89000
C        -28.19900       15.26700       -1.74400
H        -27.17900       15.33200       -2.12300
C        -29.09200       16.20200       -2.57800
H        -30.00900       16.40000       -2.02300
H        -28.58000       17.15200       -2.73400
O        -29.45400       15.63900       -3.83000
H        -28.63500       15.55300       -4.38600
C        -28.21500       15.73800       -0.28600
O        -29.16400       15.46700        0.44300
N        -27.21900       16.48900        0.15700
H        -26.43100       16.71400       -0.44000
H        -27.24400       16.80200        1.11200
