109
1 1
H         16.02300       26.46400      -17.14300
C         16.47200       27.45300      -17.07700
H         16.01800       28.11800      -17.80900
H         17.54100       27.37700      -17.27200
C         16.26400       28.01300      -15.69100
O         17.22300       28.36300      -15.01500
N         15.00000       28.10100      -15.26800
H         14.28300       27.76000      -15.88900
C         14.58200       28.58400      -13.93100
H         13.51400       28.79100      -13.98800
C         14.76200       27.49900      -12.83900
H         15.82300       27.37900      -12.61800
C         14.02400       27.87300      -11.54400
H         12.95500       27.97500      -11.73400
H         14.17700       27.09600      -10.79400
H         14.40200       28.81000      -11.13700
C         14.21100       26.13400      -13.28100
H         14.78600       25.74500      -14.12100
H         14.29700       25.41800      -12.46300
H         13.16200       26.22300      -13.56600
C         15.25800       29.92400      -13.58800
O         16.01400       30.04300      -12.62000
N         15.06900       30.91500      -14.46200
H         14.46400       30.74500      -15.24800
C         15.74400       32.21200      -14.40600
H         16.81000       32.05100      -14.51900
C         15.25000       33.07000      -15.57400
H         14.19100       33.27900      -15.41100
H         15.77500       34.02600      -15.56400
S         15.41800       32.33700      -17.22500
C         15.49800       32.93300      -13.07100
O         14.35300       33.04300      -12.63500
N         16.56000       33.44400      -12.43100
H         17.47800       33.32600      -12.85200
C         16.47000       34.10300      -11.11400
H         15.46600       34.52800      -11.04000
C         16.58500       33.04900       -9.98800
H         16.09900       33.45800       -9.10100
H         16.01200       32.16500      -10.27300
C         17.99900       32.60600       -9.56300
H         18.48400       33.44700       -9.06600
H         17.90000       31.80900       -8.82400
C         18.93500       32.12100      -10.67700
H         19.06500       32.92200      -11.40000
H         19.90700       31.91300      -10.22600
N         18.45300       30.91500      -11.37300
H         17.45300       30.76400      -11.44700
C         19.20100       30.04000      -12.01900
N         20.49100       30.13800      -12.13800
H         20.94400       31.02300      -11.94000
H         20.96800       29.40300      -12.64100
N         18.66200       29.01800      -12.60000
H         17.65800       29.00900      -12.73200
H         19.23900       28.40700      -13.16100
C         17.43000       35.28700      -10.96100
O         18.44300       35.37800      -11.64300
N         17.13400       36.19700      -10.04800
H         16.29600       36.10800       -9.49900
H         17.75000       36.98700       -9.94400
H         22.26700       35.35200      -10.95200
C         21.61400       34.48700      -10.84700
H         20.64600       34.80900      -10.47200
H         22.06200       33.78100      -10.15000
C         21.44700       33.82300      -12.19400
O         21.76000       32.64300      -12.32800
N         20.97900       34.58400      -13.18600
H         20.63900       35.50100      -12.93300
C         20.80900       34.15900      -14.58900
H         20.40900       35.00900      -15.14200
C         22.20300       33.87000      -15.17800
H         22.86000       34.71800      -14.97800
H         22.61900       32.98900      -14.69200
O         22.16600       33.64600      -16.57300
H         23.05100       33.36800      -16.85800
C         19.80000       33.00400      -14.78700
O         19.08000       32.61500      -13.86900
N         19.71800       32.46500      -16.00500
H         20.32700       32.87300      -16.70600
C         18.99600       31.24000      -16.37700
H         18.22400       31.03100      -15.64000
C         18.31700       31.46300      -17.73600
H         19.09900       31.54800      -18.49100
H         17.72500       30.58100      -17.98400
S         17.25400       32.92600      -17.88400
C         19.91500       29.99900      -16.41100
O         19.61400       29.01400      -17.08200
N         21.08500       30.05500      -15.76500
H         21.30300       30.88700      -15.24200
C         22.06100       28.96000      -15.77400
H         22.16000       28.59300      -16.79600
C         23.43200       29.47800      -15.30800
H         23.35100       29.74100      -14.25200
H         24.15100       28.66100      -15.38400
C         24.01000       30.67400      -16.05600
C         24.82200       31.59300      -15.36200
H         25.02400       31.45000      -14.30900
C         25.38700       32.69400      -16.03100
H         26.02100       33.38700      -15.49300
C         25.15300       32.88000      -17.40400
H         25.60500       33.71500      -17.92400
C         24.35100       31.96300      -18.10600
H         24.18700       32.09400      -19.16800
C         23.78400       30.86300      -17.43700
H         23.18800       30.16000      -18.00000
C         21.59400       27.77600      -14.90900
O         21.03500       27.96400      -13.83000
N         21.85200       26.54700      -15.33500
H         22.30300       26.39700      -16.22200
H         21.55200       25.77000      -14.76800
