109
1 1
H         25.56500       32.00900       -8.56900
C         25.41700       31.59400       -7.57400
H         26.19900       30.86600       -7.35900
H         24.44400       31.10600       -7.52700
C         25.46900       32.70400       -6.55200
O         24.51000       32.89400       -5.81400
N         26.59800       33.42000       -6.50900
H         27.31200       33.19200       -7.18400
C         26.85900       34.55700       -5.59400
H         27.93300       34.73900       -5.61100
C         26.18100       35.86300       -6.08300
H         25.10700       35.80200       -5.90800
C         26.73600       37.09700       -5.35500
H         27.80600       37.19600       -5.54000
H         26.23100       37.99500       -5.71300
H         26.56800       37.02500       -4.28200
C         26.40200       36.10500       -7.58500
H         25.90900       35.33100       -8.17200
H         25.97000       37.06400       -7.87300
H         27.46800       36.11400       -7.81400
C         26.51300       34.18400       -4.14000
O         25.68700       34.82100       -3.48700
N         27.06000       33.05600       -3.68300
H         27.73900       32.59400       -4.26600
C         26.54000       32.28800       -2.55300
H         25.52500       31.99300       -2.79600
C         27.37400       31.01000       -2.41200
H         28.40900       31.29900       -2.21900
H         27.02700       30.45700       -1.53800
S         27.35200       29.89000       -3.83900
C         26.51200       33.05600       -1.21900
O         27.55500       33.41600       -0.67600
N         25.31500       33.22800       -0.64400
H         24.50200       32.90900       -1.16200
C         25.12600       33.64200        0.75500
H         25.86100       34.41000        1.00200
C         23.70800       34.20500        0.98600
H         22.96700       33.50300        0.60200
H         23.55000       34.27900        2.06400
C         23.44900       35.60600        0.40100
H         22.48500       35.95600        0.77200
H         24.21300       36.28800        0.77700
C         23.42900       35.69400       -1.13100
H         23.23300       36.73000       -1.41200
H         24.41200       35.43100       -1.51500
N         22.39000       34.83400       -1.72800
H         21.76200       34.34100       -1.11100
C         22.16600       34.65200       -3.01500
N         21.11200       34.00700       -3.39800
H         20.57700       33.50800       -2.69700
H         20.96300       33.89400       -4.38900
N         22.95400       35.07800       -3.95400
H         22.74300       34.81800       -4.90800
H         23.90900       35.30500       -3.70200
C         25.37800       32.44500        1.67700
O         24.87400       31.35500        1.43100
N         26.11100       32.63900        2.76000
H         26.53100       33.53600        2.93400
H         26.27700       31.85500        3.36800
H         18.13700       30.54400       -0.25000
C         18.51900       30.97600       -1.17400
H         17.94900       31.87300       -1.41400
H         18.42100       30.25400       -1.98300
C         19.97300       31.33900       -0.99500
O         20.34000       32.50000       -1.16600
N         20.79600       30.34200       -0.67000
H         20.41400       29.41300       -0.57800
C         22.25100       30.47300       -0.50600
H         22.44800       31.32000        0.15000
C         22.82500       29.22800        0.18600
H         23.91400       29.29300        0.21400
H         22.45100       29.18800        1.21100
O         22.43900       28.04500       -0.49600
H         22.77000       27.28500       -0.00200
C         22.94100       30.77700       -1.84300
O         23.24100       31.93400       -2.12200
N         23.16600       29.77300       -2.69100
H         22.89600       28.84500       -2.38700
C         23.66900       29.93600       -4.05600
H         24.27900       30.83600       -4.12500
C         24.55600       28.73700       -4.41100
H         23.93900       27.83700       -4.38100
H         24.91000       28.85100       -5.43600
S         25.99200       28.45400       -3.33900
C         22.49300       30.07700       -5.03600
O         21.91200       29.08100       -5.45900
N         22.12900       31.31000       -5.39200
H         22.70800       32.08200       -5.07900
C         21.04900       31.60800       -6.34100
H         21.10500       30.89800       -7.16800
C         19.68400       31.43300       -5.65000
H         19.60500       30.41700       -5.26200
H         19.62100       32.10900       -4.79700
C         18.50200       31.68100       -6.56600
C         17.84100       32.92500       -6.55800
H         18.15500       33.70700       -5.88200
C         16.76500       33.15600       -7.43400
H         16.25400       34.10900       -7.42700
C         16.34900       32.14600       -8.31900
H         15.51800       32.32200       -8.98900
C         17.00700       30.90400       -8.32700
H         16.68000       30.12500       -9.00400
C         18.08300       30.67100       -7.45200
H         18.58300       29.71300       -7.45900
C         21.18900       33.02500       -6.91600
O         21.52600       33.96100       -6.19200
N         20.89000       33.22300       -8.19300
H         20.55800       32.46100       -8.76200
H         20.95300       34.15800       -8.56300
