112
0 1
H         27.84900       -6.79000       45.34300
C         27.56300       -6.27200       46.25800
H         28.42000       -6.20500       46.92500
H         26.75400       -6.81100       46.74700
C         27.09300       -4.88000       45.90700
O         27.08700       -4.50700       44.73900
N         26.68700       -4.11700       46.91900
H         26.70300       -4.49000       47.85700
C         26.19500       -2.74700       46.76300
H         26.81400       -2.24800       46.01800
C         24.74200       -2.77300       46.25500
H         24.36400       -1.75200       46.24000
H         24.74600       -3.12800       45.22400
C         23.76700       -3.62400       47.04900
C         23.14100       -3.10400       48.19700
H         23.37200       -2.10200       48.52500
C         22.22800       -3.88800       48.92400
H         21.75700       -3.49000       49.81100
C         21.93300       -5.19600       48.50000
H         21.23300       -5.80100       49.06000
C         22.55200       -5.71800       47.35100
H         22.32400       -6.72300       47.02400
C         23.46600       -4.93300       46.62500
H         23.93800       -5.33600       45.74100
C         26.30000       -1.93700       48.06400
O         26.26900       -2.50300       49.15700
N         26.37700       -0.60700       47.95800
H         26.38400       -0.20400       47.02800
C         26.16700        0.28000       49.11000
H         26.67700       -0.14300       49.97700
C         26.71900        1.69200       48.86100
H         25.93300        2.27500       48.38800
H         26.90000        2.16600       49.82500
S         28.20300        1.88900       47.84800
C         24.66500        0.40100       49.41200
O         23.86100        0.49900       48.48100
N         24.28100        0.48400       50.68900
H         24.97100        0.42700       51.42400
C         22.91800        0.86600       51.08300
H         22.55600        1.60100       50.36000
C         21.98200       -0.35400       51.02500
H         22.45800       -1.16600       50.47700
H         21.77200       -0.71700       52.03200
C         20.68800       -0.01700       50.33300
N         19.72300        0.87000       50.81500
C         18.78300        0.94000       49.86100
H         17.88800        1.54500       49.92600
N         19.11500        0.16400       48.81400
H         18.57800        0.06200       47.96300
C         20.31800       -0.44300       49.09200
H         20.88600       -1.10200       48.44700
C         22.87900        1.56300       52.44900
O         23.88200        1.64200       53.15300
N         21.72600        2.08400       52.84200
H         21.68000        2.53600       53.73900
H         20.90500        1.96400       52.26200
H         25.66100       -4.20500       42.24400
C         26.00200       -3.48000       41.50600
H         25.86500       -3.88000       40.50300
H         27.05500       -3.26300       41.67700
C         25.20000       -2.20800       41.64700
O         24.55300       -1.77500       40.70200
N         25.24500       -1.60800       42.83300
H         25.82300       -2.02300       43.55000
C         24.53100       -0.37100       43.17200
H         24.49700        0.26900       42.28800
C         23.07900       -0.71700       43.56600
H         22.54500       -1.04300       42.67200
H         23.08500       -1.56100       44.25400
C         22.29900        0.41600       44.20800
C         22.15300        0.47100       45.60900
H         22.56100       -0.31100       46.23200
C         21.49500        1.55600       46.21100
H         21.40200        1.59400       47.28800
C         20.97800        2.59300       45.41600
H         20.47700        3.43200       45.87800
C         21.11900        2.54200       44.01800
H         20.72800        3.34300       43.40600
C         21.77700        1.45400       43.41400
H         21.88800        1.42200       42.33900
C         25.26700        0.41000       44.27400
O         26.04700       -0.15900       45.03900
N         25.01600        1.71500       44.39100
H         24.35000        2.14800       43.76600
C         25.45500        2.50100       45.54000
H         25.40900        1.85600       46.41500
C         26.91000        2.94300       45.32200
H         27.48700        2.09700       44.94600
H         26.92100        3.71600       44.55200
S         27.77200        3.57800       46.78400
C         24.51400        3.69100       45.77700
O         24.19500        4.41900       44.84000
N         24.07700        3.90400       47.02100
H         24.36100        3.27200       47.75900
C         23.13500        4.96900       47.39800
H         22.39100        5.06500       46.60600
C         22.41100        4.55000       48.68600
H         21.58900        5.24300       48.86800
H         21.98100        3.55700       48.55400
C         23.30300        4.52800       49.90200
N         24.40500        3.68900       50.08300
C         24.89300        3.98300       51.29800
H         25.73700        3.48700       51.76100
N         24.16400        4.95100       51.87600
H         24.32400        5.32700       52.80100
C         23.15800        5.31200       51.00900
H         22.39700        6.06600       51.15900
C         23.76900        6.36400       47.55500
O         23.08200        7.31800       47.90000
N         25.06800        6.52200       47.33300
H         25.46200        7.44100       47.43900
H         25.62400        5.73500       47.04500
