112
0 1
H         30.42800       -3.93700       48.87600
C         31.33000       -3.33000       48.90800
H         31.78600       -3.30600       47.92000
H         32.03100       -3.75200       49.62700
C         30.97500       -1.92500       49.32900
O         31.41800       -1.46300       50.37300
N         30.15500       -1.24100       48.53500
H         29.78000       -1.72600       47.72600
C         29.74200        0.15600       48.75600
H         30.62000        0.69700       49.10800
C         29.33200        0.76500       47.40200
H         29.98600        0.36600       46.62400
H         28.32000        0.44000       47.16100
C         29.41100        2.28100       47.32100
C         30.64400        2.90300       47.04200
H         31.53100        2.30200       46.89900
C         30.72200        4.30300       46.92200
H         31.66800        4.77400       46.68700
C         29.56600        5.08800       47.08000
H         29.62100        6.16300       46.97100
C         28.33500        4.47200       47.36400
H         27.44300        5.07100       47.48100
C         28.25700        3.07200       47.47900
H         27.30500        2.60000       47.68600
C         28.66600        0.30600       49.86100
O         27.70200        1.05300       49.72500
N         28.77900       -0.46600       50.94700
H         29.63600       -1.00100       51.04100
C         27.67600       -0.77200       51.86600
H         26.87300       -1.22500       51.29300
C         28.17100       -1.81100       52.87600
H         28.97700       -1.36400       53.46000
H         27.35800       -2.04600       53.56500
S         28.78600       -3.37200       52.17700
C         27.06200        0.44500       52.58600
O         25.90000        0.39400       52.98600
N         27.81200        1.54100       52.71900
H         28.75100        1.51700       52.33500
C         27.35800        2.84100       53.23300
H         26.87000        2.70500       54.19900
C         28.60300        3.72600       53.41800
H         28.30000        4.73700       53.69300
H         29.20300        3.32200       54.23400
C         29.46500        3.77800       52.17900
N         30.42300        2.82100       51.83700
C         30.83300        3.13800       50.60200
H         31.57300        2.58300       50.04000
N         30.15900        4.20400       50.14300
H         30.20000        4.54900       49.19000
C         29.29100        4.62500       51.12500
H         28.55600        5.41500       51.05600
C         26.34700        3.56000       52.32200
O         25.65400        4.46400       52.77100
N         26.23300        3.20600       51.04900
H         26.81300        2.46700       50.67100
H         25.55500        3.68000       50.47800
H         23.10400       -1.69100       53.66900
C         23.85600       -2.36700       53.26500
H         23.64000       -3.38700       53.57800
H         24.84000       -2.07100       53.62400
C         23.82800       -2.29400       51.75900
O         23.60800       -3.29900       51.09400
N         24.08300       -1.11000       51.20800
H         24.31300       -0.34900       51.83700
C         24.04300       -0.81100       49.76600
H         23.16700       -1.30900       49.35000
C         23.86100        0.70300       49.57300
H         24.77600        1.20500       49.88700
H         23.72600        0.90900       48.51000
C         22.68700        1.30100       50.32800
C         22.88700        1.92800       51.57400
H         23.87700        1.98900       52.00200
C         21.79700        2.47700       52.27200
H         21.95900        2.96300       53.22400
C         20.50300        2.39800       51.73000
H         19.66600        2.82200       52.26800
C         20.29800        1.77000       50.48900
H         19.30200        1.71000       50.07400
C         21.38900        1.22300       49.78900
H         21.22700        0.74300       48.83500
C         25.26200       -1.35600       48.98700
O         25.81100       -0.68800       48.11300
N         25.73600       -2.55400       49.33700
H         25.19000       -3.08300       50.01000
C         27.06800       -3.05700       48.99300
H         27.80400       -2.35700       49.38000
C         27.27200       -4.39400       49.71000
H         26.53500       -5.10200       49.32900
H         28.26000       -4.78200       49.45900
S         27.12400       -4.35700       51.52100
C         27.34300       -3.19400       47.48300
O         28.50400       -3.18900       47.07400
N         26.29800       -3.28000       46.65700
H         25.37100       -3.22300       47.06500
C         26.35600       -3.28600       45.19000
H         27.11500       -3.99500       44.86000
C         24.98300       -3.74500       44.67700
H         25.00000       -3.78100       43.58700
H         24.78700       -4.75500       45.03900
C         23.85200       -2.84900       45.12600
N         23.33400       -2.79100       46.42300
C         22.38700       -1.84200       46.39700
H         21.78100       -1.55900       47.24700
N         22.30000       -1.29700       45.17100
H         21.66700       -0.55800       44.90100
C         23.22100       -1.91800       44.35500
H         23.42800       -1.70600       43.31500
C         26.71600       -1.92500       44.56500
O         27.01400       -1.85700       43.38000
N         26.68300       -0.82600       45.30800
H         26.40300       -0.87600       46.28000
H         26.92100        0.05100       44.87800
