101
-2 1
H         35.82800       -0.72700       37.60400
C         36.85900       -1.03000       37.43200
H         36.89900       -2.11600       37.37600
H         37.50300       -0.66400       38.22700
C         37.31600       -0.46200       36.11100
O         38.30000        0.27000       36.06900
N         36.59700       -0.79800       35.04600
H         35.80800       -1.42600       35.21000
C         36.89300       -0.37600       33.66600
H         37.46500        0.55300       33.70100
C         37.79100       -1.44500       33.01000
H         38.68500       -1.53600       33.62900
H         37.29200       -2.41400       33.03700
C         38.26800       -1.12100       31.58000
H         38.50000       -0.05600       31.51600
H         39.20200       -1.66500       31.41300
C         37.29100       -1.52200       30.46200
O         37.35300       -0.90700       29.37700
O         36.47400       -2.45100       30.67100
C         35.62500       -0.06100       32.85200
O         35.58400        0.95000       32.15200
N         34.56400       -0.86200       32.99500
H         34.65000       -1.67900       33.59500
C         33.23100       -0.63900       32.42200
H         32.71700       -1.58900       32.53800
C         32.45900        0.36400       33.28800
H         33.14100        1.14900       33.61700
H         31.66800        0.83000       32.70100
S         31.69700       -0.42700       34.73100
C         33.16100       -0.39800       30.90000
O         32.19900        0.19100       30.40400
N         34.12800       -0.93600       30.15100
H         34.91800       -1.35900       30.63200
C         34.09900       -1.13600       28.70000
H         35.09200       -1.49800       28.43200
C         33.11200       -2.26900       28.33800
H         32.10000       -1.99400       28.63900
H         33.11700       -2.38700       27.25400
C         33.48400       -3.63700       28.95100
H         32.92100       -4.41000       28.42900
H         34.54400       -3.83000       28.78000
C         33.17100       -3.77600       30.44300
O         32.02900       -3.90900       30.85900
N         34.16400       -3.77900       31.30000
H         35.09500       -3.48200       30.98700
H         33.93600       -3.67100       32.28700
C         33.94200        0.16600       27.89000
O         33.38300        0.19200       26.79500
N         34.44300        1.27900       28.41300
H         34.91600        1.22500       29.30400
H         34.34500        2.14100       27.91000
H         35.22700       -7.46200       32.62500
C         34.21000       -7.43000       32.24100
H         33.97000       -8.35900       31.73000
H         34.11300       -6.59200       31.55300
C         33.25800       -7.24300       33.39800
O         32.53500       -8.16400       33.75600
N         33.28400       -6.05400       33.98700
H         33.86200       -5.32800       33.57900
C         32.49100       -5.65200       35.15600
H         32.33800       -6.53100       35.78300
C         33.26800       -4.61900       36.00500
H         32.60200       -4.22500       36.77500
H         34.07500       -5.14900       36.51400
C         33.89400       -3.44500       35.23500
O         34.58400       -2.62000       35.86500
O         33.72000       -3.36200       33.99900
C         31.08300       -5.14700       34.78400
O         30.09800       -5.77300       35.17400
N         30.95500       -4.05700       34.01600
H         31.80300       -3.57900       33.72100
C         29.64400       -3.53300       33.60100
H         29.01300       -3.43900       34.48500
C         29.78800       -2.14100       32.97000
H         30.67400       -2.10500       32.33800
H         28.93100       -1.99500       32.31200
S         29.77400       -0.73500       34.12300
C         28.90300       -4.47900       32.63500
O         27.67400       -4.55000       32.66700
N         29.63100       -5.21500       31.79000
H         30.62300       -5.00600       31.72900
C         29.09000       -6.27500       30.92300
H         28.13400       -5.92100       30.53800
C         30.04000       -6.46800       29.71600
H         30.27300       -5.47200       29.33300
C         31.36400       -7.13500       30.13100
H         32.07800       -7.10100       29.31000
H         31.79300       -6.59800       30.97400
H         31.19700       -8.17300       30.42200
C         29.36400       -7.24900       28.56700
H         29.30100       -8.30700       28.82000
H         28.35000       -6.87000       28.43400
C         30.09300       -7.10600       27.22400
H         31.08400       -7.55600       27.27900
H         29.52100       -7.61500       26.44900
H         30.18600       -6.05200       26.96100
C         28.79100       -7.58900       31.68100
O         28.17200       -8.50000       31.13900
N         29.20000       -7.72600       32.93700
H         29.01800       -8.59000       33.41500
H         29.67900       -6.97100       33.40800
