101
-2 1
H         31.87700        1.06300       29.92500
C         32.66800        1.13600       29.17800
H         33.46900        1.76900       29.55000
H         32.25800        1.55300       28.26200
C         33.21500       -0.24100       28.89300
O         34.42700       -0.40300       28.80300
N         32.33200       -1.22700       28.76100
H         31.34000       -1.00600       28.86200
C         32.68900       -2.64400       28.60000
H         33.64700       -2.70000       28.08000
C         32.90000       -3.25400       30.00700
H         33.89600       -2.96800       30.34700
H         32.19400       -2.79100       30.69500
C         32.75300       -4.77500       30.18700
H         33.01100       -5.01800       31.22100
H         31.70100       -5.03300       30.04900
C         33.59700       -5.64800       29.25000
O         33.40600       -6.88000       29.27700
O         34.37000       -5.12500       28.40900
C         31.66700       -3.40500       27.73000
O         30.46700       -3.14800       27.78800
N         32.16200       -4.35400       26.92500
H         33.15600       -4.53400       27.03400
C         31.39800       -5.28000       26.07400
H         30.45600       -5.51700       26.56700
C         31.09600       -4.60300       24.72200
H         32.02700       -4.19100       24.33500
H         30.76400       -5.36600       24.01700
S         29.84200       -3.29500       24.67300
C         32.11100       -6.63000       25.79200
O         31.56400       -7.44400       25.04700
N         33.33500       -6.87700       26.28400
H         33.70700       -6.28300       27.02200
C         34.15400       -8.02900       25.85800
H         33.91200       -8.23400       24.81500
C         35.64700       -7.64500       25.89200
H         36.19700       -8.32400       25.23900
H         35.74900       -6.64200       25.47400
C         36.30200       -7.69000       27.28300
H         35.55800       -7.50600       28.05300
H         36.72300       -8.68000       27.45700
C         37.39800       -6.64100       27.42800
O         38.56200       -6.87100       27.14000
N         37.06500       -5.44600       27.85800
H         37.78400       -4.75900       27.94900
H         36.08600       -5.26000       28.10200
C         33.87000       -9.33800       26.62100
O         34.18900      -10.42000       26.13500
N         33.27400       -9.28900       27.80400
H         33.11300       -8.38700       28.24800
H         33.09200      -10.14500       28.29400
H         26.44900        4.17000       24.20800
C         26.85700        3.76700       25.13100
H         26.06500        3.63900       25.86600
H         27.62400        4.42900       25.52700
C         27.47200        2.41700       24.85000
O         27.44400        1.95600       23.71400
N         28.04400        1.81600       25.88500
H         28.03800        2.28100       26.78700
C         28.56800        0.44800       25.89800
H         28.84700        0.15200       24.88700
C         29.83300        0.44300       26.76600
H         30.33900       -0.51800       26.66500
H         30.52100        1.21200       26.40900
C         29.49600        0.70500       28.23300
O         29.11600        1.84800       28.56700
O         29.59100       -0.26200       29.01800
C         27.51400       -0.56600       26.41300
O         26.32000       -0.26800       26.47700
N         27.94000       -1.78400       26.76200
H         28.93700       -1.97300       26.78700
C         27.05200       -2.88400       27.13400
H         26.10600       -2.74600       26.60800
C         27.65300       -4.21100       26.64300
H         28.54200       -4.44300       27.22500
H         26.92400       -4.99500       26.84700
S         28.06200       -4.28500       24.87000
C         26.70600       -2.94400       28.63700
O         25.88600       -3.78300       29.01800
N         27.29700       -2.09700       29.49500
H         28.02500       -1.47900       29.14000
C         27.03600       -2.09700       30.94900
H         26.02800       -2.48400       31.09400
C         28.01500       -3.08000       31.64100
H         27.92300       -4.04500       31.13900
C         29.48100       -2.63500       31.50200
H         29.74300       -2.54000       30.44700
H         29.64200       -1.67400       31.99000
H         30.14000       -3.38000       31.94600
C         27.73000       -3.32100       33.14000
H         28.47200       -4.02200       33.52500
H         27.83400       -2.39000       33.69800
C         26.34500       -3.92100       33.41500
H         26.21000       -4.83000       32.82800
H         26.26200       -4.16600       34.47400
H         25.56300       -3.20500       33.16300
C         27.02400       -0.69700       31.59700
O         26.36800       -0.49200       32.61600
N         27.68300        0.30100       31.02900
H         28.26500        0.14000       30.21300
H         27.63500        1.21700       31.43500
