89
0 1
H         -5.94500       42.29100       49.46500
C         -5.72300       41.92900       50.46700
H         -5.40500       42.76300       51.09000
H         -6.60800       41.46500       50.89700
C         -4.60800       40.91400       50.39000
O         -3.54600       41.11600       50.97000
N         -4.84200       39.82200       49.66400
H         -5.71800       39.77700       49.16400
C         -3.89500       38.70700       49.49800
H         -3.42300       38.49000       50.45600
H         -4.43700       37.81900       49.17200
C         -2.79100       39.00000       48.47700
O         -2.63900       38.25700       47.51300
N         -2.10200       40.13500       48.62600
H         -2.29600       40.67500       49.46300
C         -1.27600       40.76700       47.58700
H         -0.99300       41.73700       47.98500
C          0.02500       39.98400       47.34700
H         -0.23000       39.01400       46.91700
H          0.61000       40.51500       46.59600
S          1.10200       39.69700       48.78000
C         -2.03400       41.07500       46.27400
O         -1.41900       41.28000       45.22800
N         -3.36700       41.12100       46.32100
H         -3.79700       41.06400       47.23500
C         -4.28900       41.31400       45.19300
H         -3.94900       40.70500       44.35600
C         -5.69900       40.83500       45.58800
H         -6.40100       41.10300       44.79700
C         -5.76900       39.32300       45.79400
H         -5.12000       39.01900       46.61300
H         -6.79500       39.03800       46.02700
H         -5.45800       38.81300       44.88300
O         -6.10700       41.44600       46.79300
H         -6.10300       42.39700       46.61700
C         -4.31100       42.77200       44.71700
O         -5.28200       43.49800       44.91000
N         -3.23100       43.23800       44.10600
H         -3.22400       44.19600       43.79800
H         -2.41300       42.64800       44.03300
H          3.82100       47.26700       40.89600
C          3.03200       46.86300       41.52900
H          2.69100       45.91200       41.12400
H          2.20400       47.56700       41.57400
C          3.58200       46.64600       42.91900
O          4.74500       46.92500       43.17300
N          2.74100       46.15300       43.82400
H          1.80200       45.92000       43.53600
C          3.11200       45.80700       45.20700
H          4.08800       45.32100       45.18900
C          3.24700       47.07400       46.07300
H          3.92300       47.77200       45.57800
C          1.92200       47.78700       46.35600
H          2.11400       48.70800       46.90600
H          1.43000       48.03900       45.41700
H          1.26300       47.15100       46.94800
O          3.80300       46.73100       47.32100
H          4.02400       47.55100       47.77300
C          2.10800       44.81700       45.80900
O          1.03200       44.60200       45.24800
N          2.43400       44.21800       46.95800
H          3.28000       44.53000       47.41600
C          1.51100       43.36800       47.70500
H          1.05200       42.66700       47.00800
C          2.28200       42.54900       48.75100
H          3.03800       41.93700       48.25700
H          2.78900       43.24500       49.42200
S          1.22800       41.47600       49.77000
C          0.38200       44.20200       48.34500
O          0.48000       44.64300       49.48900
N         -0.71100       44.41100       47.60600
H         -0.68200       44.13300       46.63200
C         -1.95900       44.97400       48.14700
H         -1.70900       45.78300       48.83500
C         -2.83700       45.57500       47.03000
H         -3.12000       44.78600       46.33600
C         -4.11300       46.21800       47.58800
H         -4.69700       46.64300       46.77200
H         -4.73000       45.46800       48.08300
H         -3.86000       47.00500       48.29800
C         -2.07800       46.65400       46.24300
H         -1.74000       47.44100       46.91700
H         -1.21600       46.21900       45.73700
H         -2.73200       47.08600       45.48500
C         -2.68700       43.88800       48.95100
O         -3.49800       43.13500       48.42500
N         -2.34500       43.73200       50.22100
H         -2.76300       42.97300       50.74300
H         -1.59200       44.28300       50.60700
