82
0 1
H         18.77900       76.76300       38.62300
C         18.83300       76.39200       39.64500
H         19.86600       76.15100       39.89000
H         18.20900       75.50600       39.74800
C         18.33700       77.46700       40.58200
O         17.98100       78.55300       40.14400
N         18.32200       77.17500       41.88000
H         18.64300       76.26400       42.17400
C         17.93200       78.11100       42.94700
H         17.04900       78.66100       42.62000
C         17.54800       77.30800       44.19800
H         17.23200       77.99000       44.98900
H         16.71900       76.64100       43.95800
O         18.65000       76.54200       44.64300
H         19.31900       77.17600       44.94300
C         19.03700       79.14500       43.23500
O         19.61400       79.16800       44.32300
N         19.38100       79.96200       42.24000
H         18.87900       79.87900       41.36000
C         20.50000       80.90600       42.28000
H         20.58500       81.31000       43.29000
C         21.78800       80.13300       41.96000
H         22.63000       80.81600       42.06600
H         21.91600       79.33700       42.69500
S         21.84900       79.40000       40.30200
C         20.28100       82.09600       41.32100
O         19.37800       82.08400       40.48700
N         21.10400       83.14200       41.43500
H         21.85500       83.09400       42.10700
C         20.97400       84.41200       40.70200
H         19.91500       84.66900       40.66700
C         21.70300       85.50900       41.49900
H         22.77200       85.29000       41.51000
H         21.55600       86.47500       41.01200
S         21.09200       85.59100       43.21100
H         19.87200       86.07000       42.93600
C         21.44700       84.35300       39.22900
O         22.07800       85.28300       38.72700
N         21.19400       83.25800       38.52500
H         21.58000       83.16200       37.59600
H         20.62600       82.52800       38.93200
H         22.76800       81.18400       31.69900
C         23.17900       80.21900       31.99000
H         23.59300       79.71900       31.11500
H         22.40000       79.59900       32.42900
C         24.28200       80.42800       33.00000
O         25.42100       80.05400       32.75600
N         23.94400       81.03100       34.13700
H         22.98100       81.30500       34.27200
C         24.87000       81.29500       35.24500
H         25.56100       80.45800       35.34500
C         25.68400       82.56200       34.95200
H         26.31000       82.40300       34.07200
H         24.99900       83.38900       34.75500
O         26.49700       82.89300       36.06100
H         26.68500       83.85000       36.02300
C         24.10900       81.47000       36.56100
O         23.01200       82.02700       36.56700
N         24.70900       81.05800       37.68400
H         25.61900       80.63200       37.60300
C         24.20800       81.38000       39.02700
H         23.12200       81.31700       38.99500
C         24.71500       80.35100       40.04600
H         25.76900       80.13900       39.86000
H         24.64700       80.78600       41.04300
S         23.78700       78.79400       40.08400
C         24.50200       82.82100       39.48800
O         24.08000       83.20800       40.57800
N         25.18300       83.62000       38.66600
H         25.56100       83.21700       37.81800
C         25.34100       85.06100       38.83900
H         24.49100       85.44400       39.40600
C         26.61000       85.34800       39.66100
H         26.76000       86.42600       39.73600
H         26.47400       84.94800       40.66800
S         28.08900       84.58400       38.92900
H         27.99700       85.20300       37.74200
C         25.33000       85.75600       37.46400
O         26.22600       85.57200       36.64000
N         24.30600       86.54800       37.18200
H         24.27700       86.99900       36.28300
H         23.51500       86.58400       37.81200
