98
-2 1
H        -26.21100     -124.35500       41.77700
C        -25.57400     -125.16900       41.43900
H        -26.16700     -125.95100       40.97100
H        -25.04200     -125.58800       42.28900
C        -24.57800     -124.63900       40.44000
O        -24.69900     -124.89800       39.24500
N        -23.59300     -123.87700       40.91200
H        -23.52500     -123.72900       41.91700
C        -22.58000     -123.24200       40.05100
H        -23.09400     -122.75800       39.22000
C        -21.78800     -122.16400       40.81800
H        -21.08900     -122.63800       41.50800
H        -21.18800     -121.62200       40.08600
C        -22.63600     -121.12300       41.57400
H        -22.00300     -120.25500       41.77000
H        -23.45400     -120.79500       40.92800
C        -23.19400     -121.61700       42.91900
O        -24.07700     -120.94200       43.49300
O        -22.77400     -122.68500       43.41700
C        -21.59100     -124.24900       39.43700
O        -20.92400     -123.93900       38.45000
N        -21.49000     -125.44500       40.02100
H        -22.09000     -125.62600       40.81700
C        -20.60300     -126.52600       39.59700
H        -19.73100     -126.10700       39.09400
C        -20.14000     -127.27600       40.85700
H        -20.99800     -127.77600       41.30600
H        -19.44100     -128.05000       40.54200
S        -19.33500     -126.28000       42.15000
C        -21.30300     -127.49200       38.62200
O        -20.65100     -128.14800       37.81000
N        -22.62800     -127.59600       38.72600
H        -23.05800     -127.10400       39.50900
C        -23.49500     -128.52800       38.00700
H        -22.90600     -129.37300       37.65000
C        -24.57400     -129.05100       38.97700
H        -25.21800     -128.22900       39.29200
H        -25.19800     -129.75500       38.42400
C        -24.03900     -129.79200       40.22100
H        -24.86900     -130.36200       40.64700
H        -23.28500     -130.51300       39.89800
C        -23.45700     -128.90300       41.33800
O        -22.86200     -129.47200       42.28000
O        -23.58200     -127.66000       41.28800
C        -24.16900     -127.88900       36.78000
O        -24.50900     -128.57600       35.81900
N        -24.37700     -126.57700       36.77400
H        -24.15100     -126.03100       37.59800
H        -24.81400     -126.15800       35.97400
H        -22.21700     -120.35700       47.54900
C        -22.45900     -120.91100       46.64600
H        -21.59300     -121.46800       46.29400
H        -22.78900     -120.23200       45.86000
C        -23.57800     -121.88200       46.93800
O        -24.08100     -121.92200       48.05700
N        -23.95500     -122.65500       45.92600
H        -23.51000     -122.48100       45.02400
C        -25.09700     -123.58200       45.91500
H        -25.39100     -123.77000       46.94600
C        -26.31300     -122.95700       45.20400
H        -27.13700     -123.66900       45.25300
C        -26.79000     -121.65600       45.85200
H        -26.96300     -121.81900       46.91500
H        -26.04000     -120.87500       45.72100
H        -27.71800     -121.34000       45.37800
O        -26.06100     -122.67500       43.84900
H        -25.33400     -122.01200       43.80000
C        -24.77800     -124.96600       45.32500
O        -25.66600     -125.81900       45.30500
N        -23.52900     -125.22700       44.90800
H        -22.90300     -124.44000       44.78800
C        -23.06300     -126.55200       44.46800
H        -23.55500     -126.78000       43.52500
C        -21.54500     -126.55300       44.23100
H        -21.04000     -126.44100       45.19100
H        -21.28700     -127.53400       43.83100
S        -20.87600     -125.31800       43.09200
C        -23.38800     -127.69100       45.45600
O        -23.35900     -127.51100       46.67700
N        -23.60300     -128.89900       44.92500
H        -23.51800     -128.98000       43.91100
C        -23.99300     -130.10800       45.68100
H        -23.86300     -129.91000       46.74500
C        -25.48400     -130.44200       45.46100
H        -25.71300     -131.34600       46.02600
C        -26.40100     -129.33600       45.99500
H        -27.44000     -129.65800       45.94500
H        -26.14500     -129.11200       47.03100
H        -26.28300     -128.42800       45.40300
C        -25.83700     -130.70900       43.99000
H        -25.66500     -129.81200       43.39200
H        -25.22600     -131.51900       43.59500
H        -26.88700     -130.98900       43.90900
C        -23.12600     -131.34000       45.38300
O        -23.14500     -132.30900       46.13600
N        -22.33900     -131.34600       44.31600
H        -22.38000     -130.57400       43.65600
H        -21.77600     -132.15500       44.13200
