98
-2 1
H        -22.14700     -124.52300       45.15000
C        -21.21300     -124.99100       44.85000
H        -21.30900     -125.36600       43.83200
H        -20.95600     -125.80800       45.52000
C        -20.11200     -123.96100       44.88000
O        -20.31100     -122.85000       45.36600
N        -18.93000     -124.33900       44.40400
H        -18.83200     -125.29300       44.05800
C        -17.71800     -123.51400       44.45900
H        -17.70200     -123.04300       45.44200
C        -16.45900     -124.40400       44.38300
H        -15.60000     -123.77100       44.60800
H        -16.49700     -125.15700       45.17200
C        -16.18300     -125.08500       43.02800
H        -16.34500     -124.37000       42.21900
H        -15.12500     -125.35700       43.01000
C        -16.99900     -126.36000       42.76400
O        -17.81700     -126.77800       43.61200
O        -16.82200     -126.96300       41.68500
C        -17.66100     -122.34100       43.45800
O        -16.69800     -121.57300       43.50800
N        -18.65900     -122.15800       42.58200
H        -19.42800     -122.82800       42.56100
C        -18.73000     -121.00400       41.66900
H        -17.93500     -120.30500       41.93000
C        -18.44500     -121.47800       40.24000
H        -18.24300     -120.60300       39.62200
H        -17.54200     -122.08800       40.26000
S        -19.76300     -122.42600       39.43700
C        -20.03300     -120.18600       41.77600
O        -20.10600     -119.07500       41.24900
N        -21.03900     -120.69900       42.48600
H        -20.93500     -121.67500       42.76000
C        -22.38300     -120.12200       42.62000
H        -22.37400     -119.10600       42.22600
C        -23.37200     -120.94000       41.76500
H        -24.35200     -120.46700       41.85000
H        -23.07800     -120.87800       40.71600
C        -23.52400     -122.42200       42.16100
H        -23.53700     -122.52400       43.24800
H        -24.49400     -122.76900       41.79600
C        -22.42400     -123.30300       41.55300
O        -22.66500     -123.85200       40.45600
O        -21.33500     -123.40400       42.16400
C        -22.86800     -120.00800       44.07900
O        -23.82100     -119.28700       44.36500
N        -22.23300     -120.67200       45.03700
H        -22.56300     -120.59000       45.98100
H        -21.46200     -121.29100       44.81300
H        -16.24800     -129.32800       43.88100
C        -16.19700     -129.94300       42.98400
H        -15.63300     -130.85200       43.17400
H        -15.72900     -129.36500       42.18800
C        -17.60000     -130.29900       42.55600
O        -17.90700     -131.47500       42.38400
N        -18.44700     -129.28600       42.40600
H        -18.08500     -128.35100       42.60600
C        -19.86100     -129.40500       42.01100
H        -19.93300     -130.23700       41.31300
C        -20.72400     -129.76900       43.23500
H        -20.29100     -130.64300       43.72300
C        -20.84500     -128.64800       44.26700
H        -21.34800     -127.78600       43.82900
H        -21.42100     -129.00300       45.12000
H        -19.85400     -128.34900       44.60700
O        -22.03400     -130.09600       42.83300
H        -22.29400     -129.38300       42.22600
C        -20.40800     -128.17500       41.25800
O        -21.62200     -128.08800       41.05700
N        -19.55100     -127.24000       40.83400
H        -18.56700     -127.34100       41.07500
C        -19.92400     -126.04800       40.06500
H        -20.56900     -125.42400       40.68400
C        -18.64500     -125.25200       39.75500
H        -18.27600     -124.81600       40.68300
H        -17.89400     -125.95900       39.40100
S        -18.77700     -123.93900       38.50400
C        -20.68400     -126.38900       38.76900
O        -20.24400     -127.21100       37.96000
N        -21.80700     -125.70000       38.55000
H        -22.09800     -125.06600       39.29600
C        -22.66800     -125.78900       37.35500
H        -22.07700     -126.19300       36.53500
C        -23.86100     -126.74200       37.58900
H        -24.49000     -126.71400       36.69900
C        -23.41500     -128.19800       37.76600
H        -22.85000     -128.30700       38.69200
H        -24.28500     -128.85100       37.80200
H        -22.77800     -128.49100       36.93100
C        -24.73600     -126.34200       38.78600
H        -25.58700     -127.01700       38.86400
H        -24.15500     -126.39400       39.70900
H        -25.10200     -125.32300       38.66100
C        -23.17700     -124.42100       36.87800
O        -23.66200     -124.29800       35.75600
N        -23.07500     -123.36800       37.67700
H        -22.73000     -123.48700       38.62700
H        -23.39300     -122.47400       37.35200
