98
-2 1
H        -23.56100     -127.97600       45.00700
C        -23.90600     -126.94300       44.98400
H        -24.56100     -126.74000       45.82700
H        -24.44200     -126.76400       44.05300
C        -22.71400     -126.02000       45.04300
O        -22.60100     -125.20100       45.95100
N        -21.80400     -126.17700       44.08800
H        -21.95800     -126.95500       43.45500
C        -20.50700     -125.48100       44.03900
H        -20.00700     -125.64000       44.99400
C        -19.60500     -126.06000       42.92600
H        -19.98000     -125.75200       41.95000
H        -18.61600     -125.61500       43.04300
C        -19.42000     -127.58500       42.93200
H        -18.50900     -127.82400       42.37800
H        -19.28000     -127.93200       43.95900
C        -20.59900     -128.30700       42.27300
O        -20.66600     -128.38800       41.02900
O        -21.51000     -128.75700       43.00000
C        -20.60200     -123.95400       43.84800
O        -19.61100     -123.25700       44.07000
N        -21.75900     -123.43000       43.43400
H        -22.55800     -124.05200       43.31000
C        -21.97400     -122.01300       43.12400
H        -21.02600     -121.47800       43.16700
C        -22.51300     -121.92500       41.69200
H        -23.49400     -122.40200       41.66600
H        -22.65400     -120.87500       41.43700
S        -21.48200     -122.69400       40.41100
C        -22.94400     -121.31300       44.09700
O        -22.99900     -120.08400       44.13700
N        -23.73100     -122.08100       44.85200
H        -23.67600     -123.08000       44.66100
C        -24.93000     -121.61600       45.56000
H        -24.81500     -120.55600       45.78800
C        -26.15200     -121.76400       44.62700
H        -27.02200     -121.37100       45.15500
H        -26.00700     -121.13800       43.74500
C        -26.48400     -123.20000       44.17300
H        -26.41100     -123.88600       45.02000
H        -27.52300     -123.21500       43.83600
C        -25.58700     -123.67700       43.02200
O        -24.50200     -124.23400       43.30100
O        -25.95700     -123.45600       41.84700
C        -25.17800     -122.31800       46.91100
O        -26.00000     -121.86700       47.70500
N        -24.48000     -123.40000       47.23000
H        -23.80200     -123.78700       46.58300
H        -24.65600     -123.84500       48.11200
H        -20.60100     -130.64100       39.28300
C        -20.89800     -131.56200       39.78300
H        -20.31500     -131.67600       40.69400
H        -20.75000     -132.41500       39.12500
C        -22.35900     -131.46300       40.15400
O        -23.14900     -132.32000       39.76900
N        -22.69800     -130.41400       40.89400
H        -21.94900     -129.77600       41.16200
C        -24.04000     -130.12700       41.43400
H        -24.76800     -130.61500       40.78700
C        -24.22800     -130.69700       42.85900
H        -24.96700     -130.09800       43.39300
C        -24.74500     -132.13500       42.82400
H        -24.02200     -132.77400       42.31800
H        -24.89100     -132.49100       43.84300
H        -25.69600     -132.17000       42.29300
O        -23.04800     -130.73300       43.63400
H        -22.50000     -129.94100       43.40700
C        -24.43100     -128.64100       41.40000
O        -25.57600     -128.32400       41.72000
N        -23.54500     -127.73800       40.96700
H        -22.59300     -128.04600       40.78800
C        -23.87900     -126.34000       40.67200
H        -24.32400     -125.90300       41.56400
C        -22.58500     -125.57200       40.36000
H        -22.08400     -125.38700       41.30700
H        -21.93400     -126.20600       39.75600
S        -22.76600     -123.98200       39.49100
C        -24.91600     -126.21300       39.53700
O        -24.87900     -126.94900       38.54700
N        -25.82200     -125.23800       39.66900
H        -25.77700     -124.67800       40.52200
C        -26.89400     -124.92300       38.70500
H        -26.71300     -125.47000       37.78000
C        -28.26000     -125.38100       39.26800
H        -28.45000     -124.85700       40.20600
C        -29.43000     -125.08600       38.31700
H        -29.55000     -124.01100       38.19200
H        -29.24000     -125.54200       37.34500
H        -30.35600     -125.48300       38.73100
C        -28.28500     -126.89100       39.54800
H        -29.27100     -127.19600       39.89800
H        -28.02700     -127.44400       38.64500
H        -27.56400     -127.13700       40.32800
C        -26.90900     -123.43100       38.33500
O        -27.29400     -123.06100       37.22900
N        -26.46800     -122.54100       39.21300
H        -26.17400     -122.84800       40.13700
H        -26.44900     -121.57100       38.95800
