98
-2 1
H        -30.01600     -125.76900       45.19200
C        -29.73200     -126.67100       44.65600
H        -29.96500     -127.55300       45.24900
H        -28.66500     -126.65400       44.44300
C        -30.48000     -126.74400       43.34800
O        -31.02800     -127.78500       43.00800
N        -30.52300     -125.63200       42.62100
H        -30.10700     -124.78200       43.00000
C        -31.10600     -125.56000       41.27200
H        -31.95200     -126.24800       41.23100
C        -31.65500     -124.13900       41.01700
H        -32.36200     -124.19600       40.18800
H        -32.22300     -123.82300       41.89400
C        -30.62500     -123.04600       40.67100
H        -30.24800     -123.23300       39.66300
H        -31.13900     -122.08200       40.64900
C        -29.44700     -122.96400       41.65100
O        -28.28700     -122.98800       41.19400
O        -29.67400     -122.93500       42.88100
C        -30.13800     -125.99900       40.15600
O        -30.58300     -126.37300       39.07200
N        -28.82900     -125.95700       40.42000
H        -28.56200     -125.60800       41.32800
C        -27.75000     -126.16400       39.45100
H        -27.85500     -125.43600       38.64600
C        -26.44700     -125.87400       40.20100
H        -26.46500     -124.83200       40.52200
H        -26.44400     -126.49700       41.09200
S        -24.89700     -126.17100       39.31100
C        -27.75200     -127.56600       38.81400
O        -27.67400     -127.69400       37.59200
N        -27.89900     -128.62200       39.61900
H        -27.81100     -128.47900       40.62200
C        -28.06700     -130.00500       39.15000
H        -27.36800     -130.17700       38.33100
C        -27.71800     -130.98400       40.28800
H        -28.30300     -130.74800       41.17800
H        -28.00100     -131.98900       39.97200
C        -26.21800     -131.04000       40.63200
H        -26.05400     -131.92400       41.25300
H        -25.65500     -131.18600       39.70700
C        -25.66200     -129.82300       41.38900
O        -26.43800     -129.07600       42.02800
O        -24.42200     -129.66400       41.40000
C        -29.47200     -130.30400       38.57500
O        -29.74600     -131.41400       38.12400
N        -30.39500     -129.34900       38.56300
H        -30.16600     -128.41700       38.88300
H        -31.29900     -129.55500       38.17800
H        -24.41800     -121.34200       40.58700
C        -25.34100     -121.76800       40.97300
H        -25.71000     -122.53900       40.29800
H        -26.10500     -121.00000       41.07700
C        -25.08300     -122.38900       42.32400
O        -23.94200     -122.42700       42.77400
N        -26.13200     -122.89300       42.96800
H        -27.03200     -122.84700       42.48900
C        -26.08700     -123.54100       44.29500
H        -25.35200     -123.00700       44.89600
C        -27.44400     -123.44000       45.02900
H        -28.11400     -124.21800       44.66300
C        -27.30100     -123.56800       46.54800
H        -26.65200     -122.77800       46.92400
H        -28.28400     -123.47800       47.00800
H        -26.88100     -124.53800       46.80900
O        -28.07100     -122.19700       44.81600
H        -28.67600     -122.35000       44.05200
C        -25.60800     -125.00200       44.19500
O        -26.20200     -125.90500       44.78100
N        -24.57800     -125.25500       43.38300
H        -24.11500     -124.46400       42.95500
C        -24.21600     -126.59400       42.91500
H        -25.09500     -127.03600       42.45700
C        -23.14000     -126.48800       41.82700
H        -22.20600     -126.19700       42.30900
H        -22.99800     -127.47600       41.38600
S        -23.47700     -125.29800       40.49200
C        -23.79300     -127.54100       44.05000
O        -22.84100     -127.27600       44.78800
N        -24.50200     -128.66500       44.15900
H        -25.22800     -128.80600       43.45400
C        -24.27400     -129.74600       45.12900
H        -24.04900     -129.30100       46.09700
C        -25.56500     -130.58800       45.26200
H        -25.78900     -131.04700       44.29800
C        -25.44200     -131.71100       46.30300
H        -26.39400     -132.23000       46.40300
H        -24.69400     -132.43600       45.98600
H        -25.15200     -131.29200       47.26700
C        -26.76700     -129.72200       45.67500
H        -26.98100     -128.98400       44.90000
H        -27.65400     -130.34300       45.79300
H        -26.55300     -129.20200       46.60900
C        -23.07300     -130.62300       44.73700
O        -22.42300     -131.22400       45.58900
N        -22.73200     -130.70900       43.45800
H        -23.28500     -130.22100       42.75600
H        -21.93600     -131.26200       43.20000
