92
0 1
H        -28.60400       -3.45100       19.22600
C        -28.52600       -2.55000       19.83000
H        -28.18400       -2.80300       20.83300
H        -27.82500       -1.86300       19.36100
C        -29.87400       -1.87800       19.92500
O        -30.17100       -1.23000       20.92300
N        -30.68000       -2.00500       18.87400
H        -30.39900       -2.63100       18.12800
C        -31.89000       -1.20500       18.67100
H        -31.64000       -0.16900       18.90500
C        -32.25400       -1.26400       17.18000
H        -32.52500       -2.28000       16.89700
H        -33.09900       -0.60300       16.98400
H        -31.40600       -0.93700       16.57800
C        -33.09000       -1.56000       19.57800
O        -34.10500       -0.87200       19.50500
N        -33.00100       -2.59800       20.42000
H        -32.14800       -3.15200       20.42000
C        -34.05600       -2.96100       21.37700
H        -34.85400       -2.21800       21.34100
C        -34.67000       -4.30700       20.97500
H        -33.87200       -5.04600       20.89600
H        -35.34500       -4.62700       21.77000
S        -35.61900       -4.28800       19.42900
C        -33.58500       -2.99900       22.84000
O        -34.39500       -2.76200       23.73500
N        -32.30600       -3.29700       23.11200
H        -31.70500       -3.57200       22.33400
C        -31.74400       -3.35100       24.47800
H        -32.20100       -2.53600       25.04100
C        -32.16400       -4.66000       25.19200
H        -31.66500       -4.71900       26.15900
H        -33.23000       -4.58900       25.41300
C        -31.95100       -5.96400       24.39200
H        -32.93100       -6.35900       24.12200
H        -31.43200       -5.76300       23.46200
C        -31.18900       -7.05800       25.15600
H        -31.72600       -7.28000       26.07900
H        -31.17900       -7.96500       24.54800
C        -29.74300       -6.67500       25.50200
H        -29.75400       -5.77700       26.12800
H        -29.29800       -7.48800       26.08200
N        -28.93000       -6.42300       24.29000
H        -27.98200       -6.17100       24.51600
H        -28.94300       -7.22100       23.65900
H        -29.30100       -5.63200       23.75500
C        -30.23700       -3.04600       24.53900
O        -29.50100       -3.63500       25.32900
N        -29.74600       -2.13800       23.71100
H        -28.75400       -1.98300       23.70500
H        -30.33100       -1.73000       22.99500
H        -28.03800      -10.84500       22.42700
C        -28.28300      -10.51800       21.41900
H        -28.94000      -11.24700       20.94800
H        -27.37100      -10.41500       20.83400
C        -28.98600       -9.18500       21.48400
O        -29.17500       -8.63700       22.56900
N        -29.35500       -8.65500       20.32100
H        -29.16100       -9.16100       19.46900
C        -30.12400       -7.41300       20.17500
H        -30.94000       -7.42700       20.90100
C        -29.22500       -6.19700       20.45500
H        -28.35700       -6.49800       21.04500
H        -28.84900       -5.78400       19.51800
C        -29.98400       -5.12300       21.23000
O        -29.45500       -4.72100       22.28400
O        -31.12100       -4.75800       20.85000
C        -30.73300       -7.27500       18.77200
O        -30.30000       -7.93300       17.82300
N        -31.68800       -6.36000       18.62300
H        -31.89700       -5.77300       19.42700
C        -32.18100       -5.92000       17.32300
H        -32.52200       -6.78700       16.75700
C        -33.36900       -4.98500       17.55000
H        -33.04000       -4.16600       18.18900
H        -33.69200       -4.56100       16.59900
S        -34.78900       -5.78600       18.33500
C        -31.04500       -5.22700       16.55300
O        -30.49400       -4.23100       17.02000
N        -30.67700       -5.78400       15.39400
H        -31.17000       -6.61300       15.10100
C        -29.48300       -5.41100       14.62200
H        -29.39400       -6.14700       13.82200
C        -29.70700       -4.05400       13.93500
H        -29.73900       -3.25600       14.67900
H        -28.88600       -3.85300       13.24500
H        -30.64300       -4.06500       13.37600
C        -28.14500       -5.51500       15.40200
O        -27.14000       -4.93300       15.01300
N        -28.08500       -6.26900       16.49500
H        -28.90200       -6.76700       16.82200
H        -27.21000       -6.31600       16.98900
