92
0 1
H        -24.07000        0.51000       11.86100
C        -24.05500        1.13100       12.75400
H        -23.58500        0.58400       13.57100
H        -23.49400        2.04300       12.55800
C        -25.47200        1.48700       13.13800
O        -25.84600        2.65800       13.08000
N        -26.24500        0.47800       13.54000
H        -25.81700       -0.43100       13.61200
C        -27.65200        0.60800       13.94100
H        -27.87300        1.66500       14.08100
C        -28.52400        0.10500       12.78200
H        -29.57700        0.26500       13.01700
H        -28.28100        0.65200       11.87000
H        -28.35400       -0.96000       12.62200
C        -28.01500       -0.06900       15.28600
O        -29.18300       -0.06500       15.67200
N        -27.05100       -0.63400       16.02000
H        -26.08900       -0.41500       15.77200
C        -27.26400       -1.12800       17.37900
H        -28.23400       -1.62600       17.42800
C        -26.19600       -2.18600       17.67600
H        -26.25100       -2.93800       16.88900
H        -25.21500       -1.71800       17.60600
S        -26.31700       -3.06000       19.26500
C        -27.28600        0.04800       18.37500
O        -26.26700        0.43500       18.95100
N        -28.46700        0.65500       18.54500
H        -29.23500        0.34500       17.95700
C        -28.73600        1.76700       19.47400
H        -28.24400        1.54200       20.42200
C        -28.14700        3.08800       18.93400
H        -28.52600        3.91800       19.53200
H        -27.06300        3.05800       19.06300
C        -28.44100        3.35500       17.44800
H        -27.92900        2.60100       16.85000
H        -29.51100        3.27300       17.25600
C        -27.96400        4.75500       17.02700
H        -28.79000        5.45600       17.15300
H        -27.14300        5.08600       17.66500
C        -27.50100        4.77600       15.56500
H        -28.24300        4.26100       14.94800
H        -27.43200        5.81400       15.23000
N        -26.17900        4.12500       15.42200
H        -25.89900        4.00500       14.45200
H        -25.45900        4.59600       15.96400
H        -26.19100        3.17100       15.79100
C        -30.23400        1.90100       19.76000
O        -31.07100        1.55000       18.94100
N        -30.59200        2.43300       20.91700
H        -29.89300        2.71600       21.58200
H        -31.57600        2.52100       21.10900
H        -21.83200        6.26400       18.30700
C        -22.85300        6.24800       18.68500
H        -23.39500        7.11700       18.31400
H        -22.84100        6.26000       19.77300
C        -23.53900        4.99200       18.20900
O        -24.53900        5.06700       17.49900
N        -22.98500        3.84300       18.58700
H        -22.14900        3.86900       19.15500
C        -23.51100        2.50200       18.30100
H        -24.58200        2.48400       18.51500
C        -23.26900        2.16000       16.82200
H        -23.34000        3.05700       16.20400
H        -22.27100        1.74000       16.68300
C        -24.33500        1.18700       16.35400
O        -25.47100        1.66600       16.15600
O        -24.04600       -0.01700       16.19800
C        -22.80800        1.43300       19.15700
O        -21.69100        1.67100       19.61800
N        -23.37700        0.22800       19.28400
H        -24.32900        0.09200       18.95600
C        -22.62500       -0.93700       19.77900
H        -22.24300       -0.70700       20.77500
C        -23.52300       -2.17900       19.87200
H        -23.62800       -2.58700       18.86600
H        -23.00800       -2.93600       20.46500
S        -25.18600       -1.95100       20.54800
C        -21.42600       -1.27300       18.87000
O        -20.42000       -1.79100       19.34700
N        -21.51800       -0.96900       17.56700
H        -22.40100       -0.60900       17.21400
C        -20.41200       -1.07500       16.61300
H        -19.91000       -2.03000       16.77900
C        -21.01200       -1.09000       15.20100
H        -21.75400       -1.88500       15.12000
H        -21.48800       -0.13200       14.99000
H        -20.22300       -1.26500       14.46800
C        -19.33100        0.02500       16.76500
O        -18.38600        0.07900       15.98400
N        -19.43700        0.93600       17.72600
H        -18.71200        1.62800       17.80700
H        -20.20300        0.90400       18.38500
