120
2 1
H         24.43300        5.53900       -3.56800
C         24.58500        4.59900       -3.03900
H         23.84300        4.49800       -2.24900
H         25.57700        4.57200       -2.59700
C         24.45700        3.46000       -4.02400
O         25.44900        3.05800       -4.62900
N         23.24200        2.92700       -4.17700
H         22.47900        3.34900       -3.67100
C         22.93300        1.86500       -5.14200
H         23.78800        1.18900       -5.19800
C         21.71000        1.06400       -4.66100
H         21.85000        0.77700       -3.61700
H         20.82900        1.70400       -4.71500
C         21.50100       -0.21900       -5.49200
H         21.76000       -0.04700       -6.53600
H         22.17600       -0.98700       -5.11100
C         20.05800       -0.74500       -5.42300
H         20.02700       -1.75500       -5.83600
H         19.75400       -0.80400       -4.37600
C         19.06500        0.14700       -6.18700
H         18.04800       -0.18100       -5.95500
H         19.16900        1.17800       -5.83700
N         19.28000        0.09800       -7.65400
H         19.07500       -0.80600       -8.04900
H         18.72400        0.80600       -8.13300
H         20.23100        0.35500       -7.91500
C         22.68600        2.46000       -6.53300
O         21.71300        3.18300       -6.73100
N         23.50500        2.06600       -7.50500
H         24.29400        1.49100       -7.25900
C         23.34200        2.42800       -8.91400
H         23.48300        3.50400       -9.01500
C         24.42500        1.70400       -9.72600
H         24.16600        0.64500       -9.75200
H         24.39500        2.06500      -10.75500
S         26.14500        1.81100       -9.15200
C         21.95000        2.04600       -9.47500
O         21.42500        0.97800       -9.14200
N         21.42400        2.87800      -10.38200
H         21.88800        3.77700      -10.46200
C         20.17500        2.75100      -11.15700
H         20.12500        3.64800      -11.77400
C         20.21400        1.54800      -12.13200
H         20.44200        0.64200      -11.57100
H         19.20700        1.41400      -12.53000
C         21.15600        1.61300      -13.35400
H         20.97300        0.71200      -13.94000
C         20.85800        2.81300      -14.25400
H         21.12300        3.74700      -13.76000
H         21.44300        2.72900      -15.17200
H         19.80200        2.82300      -14.52200
C         22.64300        1.62600      -13.00100
H         23.22800        1.48200      -13.91100
H         22.92300        2.57900      -12.55800
H         22.86300        0.80900      -12.31500
C         18.87200        2.78100      -10.33100
O         18.75800        2.23500       -9.23800
N         17.82800        3.39400      -10.87300
H         17.90400        3.82700      -11.77900
H         16.96000        3.41500      -10.36100
H         19.48800        5.17400       -8.78900
C         19.95000        5.87400       -8.09700
H         19.94600        5.44300       -7.09600
H         19.39900        6.81300       -8.10100
C         21.37900        6.11800       -8.51800
O         21.85900        5.50700       -9.47100
N         22.07500        7.01700       -7.81600
H         21.62200        7.45200       -7.02700
C         23.51900        7.21300       -8.00800
H         23.70700        7.20100       -9.08400
C         23.99300        8.58000       -7.47200
H         24.99200        8.76100       -7.86900
H         23.33500        9.36000       -7.86000
C         24.04700        8.67800       -5.93400
H         23.04900        8.49900       -5.53300
H         24.71100        7.91200       -5.53600
C         24.53900       10.04200       -5.42100
H         23.83900       10.81100       -5.75300
H         24.51200       10.02600       -4.33000
C         25.95400       10.44400       -5.87400
H         25.96100       10.57100       -6.96100
H         26.18300       11.41600       -5.42800
N         26.99100        9.46000       -5.47200
H         26.87800        9.15300       -4.50700
H         26.92600        8.58800       -5.99600
H         27.92600        9.81600       -5.59500
C         24.31100        6.05500       -7.39800
O         23.96500        5.54900       -6.33400
N         25.43500        5.70900       -8.01600
H         25.66000        6.13400       -8.90000
C         26.45400        4.89600       -7.35900
H         25.98100        4.00800       -6.93600
C         27.48500        4.44500       -8.39800
H         28.03400        5.32200       -8.74300
H         28.20300        3.78000       -7.91400
S         26.82800        3.59400       -9.85900
C         27.14000        5.68900       -6.22700
O         27.40800        6.88400       -6.39300
N         27.47200        5.00300       -5.12800
H         27.09200        4.06300       -5.06700
C         28.23700        5.46400       -3.95400
H         28.28200        4.60600       -3.28200
C         29.69800        5.78900       -4.33900
H         29.69900        6.69400       -4.94800
H         30.25300        6.01000       -3.42700
C         30.45300        4.68800       -5.11100
H         29.94300        4.48500       -6.05300
C         31.86700        5.16800       -5.43200
H         31.82500        6.08200       -6.02500
H         32.42100        5.36100       -4.51300
H         32.39300        4.40700       -6.00900
C         30.55700        3.38500       -4.31600
H         29.57000        2.95400       -4.16000
H         31.15600        2.66300       -4.87300
H         31.03500        3.56800       -3.35300
C         27.59300        6.59000       -3.11500
O         26.90500        7.48300       -3.60400
N         27.84500        6.58900       -1.81300
H         28.42700        5.87400       -1.40600
H         27.44300        7.31400       -1.24100
