120
2 1
H         30.79800        4.08700       -7.38500
C         30.93000        4.68000       -6.48000
H         31.42400        5.61700       -6.73200
H         31.53800        4.12000       -5.77200
C         29.57600        4.96100       -5.87400
O         28.55700        4.55500       -6.41700
N         29.54700        5.70200       -4.76100
H         30.43900        6.01900       -4.41100
C         28.34700        5.98100       -3.93500
H         27.88300        5.01700       -3.71900
C         28.81400        6.60400       -2.60100
H         29.81200        6.23400       -2.35900
H         28.88200        7.68600       -2.71800
C         27.90100        6.25600       -1.41200
H         26.86700        6.51100       -1.64000
H         27.96200        5.18300       -1.22500
C         28.32300        7.01800       -0.14800
H         29.38400        6.85300        0.04700
H         28.15600        8.08400       -0.31300
C         27.50100        6.54300        1.05700
H         26.44900        6.49800        0.76100
H         27.82200        5.53200        1.32700
N         27.64400        7.46400        2.21100
H         27.14700        7.11700        3.01900
H         28.61500        7.61500        2.44800
H         27.22500        8.36200        1.96300
C         27.24600        6.82700       -4.62300
O         26.30400        7.27400       -3.97700
N         27.35000        7.05900       -5.93000
H         28.09900        6.58200       -6.41000
C         26.44800        7.88300       -6.74200
H         26.05500        8.68100       -6.12100
C         27.27500        8.53100       -7.85900
H         27.57100        7.74800       -8.55900
H         26.65100        9.23800       -8.40600
S         28.78700        9.38800       -7.32300
C         25.21800        7.13200       -7.29800
O         24.47000        7.70500       -8.09400
N         24.99700        5.87500       -6.89400
H         25.65300        5.48700       -6.23300
C         23.96500        4.96300       -7.41800
H         24.16000        4.81700       -8.48100
C         24.08100        3.59200       -6.71600
H         23.76800        3.71300       -5.67700
H         23.38200        2.90200       -7.19000
C         25.47700        2.93800       -6.71900
H         26.16100        3.56500       -6.14900
C         25.40600        1.57400       -6.03400
H         26.40300        1.13300       -5.99200
H         25.03200        1.68600       -5.01700
H         24.74700        0.90500       -6.58900
C         26.03100        2.74200       -8.13000
H         25.34600        2.14000       -8.72700
H         26.19100        3.70600       -8.61100
H         26.99500        2.23500       -8.07400
C         22.51900        5.49200       -7.30000
O         22.20600        6.39000       -6.51800
N         21.60100        4.93400       -8.07700
H         20.64400        5.23600       -7.99200
H         21.85400        4.19200       -8.70900
H         23.86700       15.35100       -2.01700
C         23.87800       15.37600       -3.10700
H         24.77700       15.88700       -3.44800
H         22.99700       15.91000       -3.45900
C         23.85700       13.96200       -3.63600
O         23.84700       13.01200       -2.86200
N         23.89000       13.80600       -4.96500
H         23.90800       14.64900       -5.52100
C         23.73400       12.51200       -5.66700
H         22.71700       12.16500       -5.49200
C         23.93200       12.76200       -7.17700
H         23.22700       13.52700       -7.50500
H         24.93500       13.17100       -7.31500
C         23.80600       11.55000       -8.12500
H         24.22900       11.86500       -9.08000
H         24.42800       10.72600       -7.77900
C         22.37800       11.05100       -8.42900
H         21.76200       11.90700       -8.70900
H         22.44100       10.40800       -9.31000
C         21.64500       10.26000       -7.33400
H         21.42800       10.91400       -6.48600
H         20.68800        9.92800       -7.74900
N         22.41700        9.07900       -6.88300
H         23.14200        9.34200       -6.22100
H         21.85200        8.35800       -6.44200
H         22.89700        8.61200       -7.65000
C         24.66700       11.40000       -5.15600
O         24.27200       10.23800       -5.20200
N         25.86500       11.73500       -4.67800
H         26.11100       12.71100       -4.68600
C         26.86300       10.77800       -4.18300
H         26.59000        9.78200       -4.51300
C         28.21400       11.11200       -4.82700
H         28.55400       12.07200       -4.43400
H         28.94800       10.36200       -4.52900
S         28.20300       11.22300       -6.64200
C         26.94900       10.67600       -2.64500
O         27.82000        9.97800       -2.13100
N         26.06900       11.35400       -1.89300
H         25.35600       11.91300       -2.34900
C         26.04600       11.29200       -0.42500
H         27.06600       11.42600       -0.05900
C         25.19600       12.47100        0.09200
H         25.61600       13.38000       -0.34100
H         24.17300       12.38000       -0.27600
C         25.17200       12.62600        1.62800
H         26.09500       12.22700        2.05100
C         25.07600       14.10500        2.00600
H         25.05900       14.21000        3.09100
H         25.94300       14.64400        1.62400
H         24.16800       14.54300        1.59100
C         23.97400       11.91800        2.26800
H         23.99600       12.06700        3.34800
H         23.04200       12.32800        1.87800
H         24.00500       10.84900        2.07400
C         25.55600        9.92600        0.09000
O         26.05700        9.41200        1.08900
N         24.61300        9.29200       -0.59600
H         24.28000        8.40100       -0.26900
H         24.23000        9.72000       -1.42300
