120
2 1
H         15.10900        7.13100       -7.50800
C         14.92500        7.34900       -6.45800
H         14.10500        6.73100       -6.09300
H         14.65500        8.39900       -6.34800
C         16.16700        7.06700       -5.64600
O         16.70000        7.95900       -4.99600
N         16.67000        5.82900       -5.70600
H         16.16400        5.15600       -6.26500
C         17.77500        5.33800       -4.85400
H         17.44000        5.40900       -3.81700
C         18.00800        3.84400       -5.17300
H         17.05200        3.32800       -5.06200
H         18.32700        3.72500       -6.21100
C         19.01500        3.15400       -4.23200
H         18.99600        3.65400       -3.26300
H         18.69200        2.12500       -4.07000
C         20.44800        3.11200       -4.79600
H         20.51800        2.27600       -5.49500
H         20.68000        4.02200       -5.35000
C         21.49100        2.92100       -3.68800
H         21.18100        2.09900       -3.03600
H         22.44300        2.64400       -4.15000
N         21.68000        4.16500       -2.90300
H         20.82700        4.47500       -2.46100
H         22.42500        4.05800       -2.21600
H         21.99000        4.92500       -3.50700
C         19.06700        6.17300       -4.92500
O         19.84700        6.15600       -3.97300
N         19.29800        6.90300       -6.01800
H         18.61300        6.86300       -6.75500
C         20.44300        7.80700       -6.17800
H         21.31200        7.31600       -5.74600
C         20.71100        8.02200       -7.67500
H         19.77100        8.25600       -8.17800
H         21.36700        8.88500       -7.80200
S         21.49200        6.62400       -8.51900
C         20.31100        9.17000       -5.46300
O         21.29600        9.91000       -5.41300
N         19.13900        9.53900       -4.93100
H         18.34400        8.91000       -4.99500
C         18.92400       10.83600       -4.27100
H         19.33600       11.62300       -4.90300
C         17.41400       11.10100       -4.10100
H         16.97900       10.27900       -3.53000
H         17.28300       12.01200       -3.51500
C         16.62900       11.25600       -5.42000
H         16.80800       10.39300       -6.06100
C         15.13300       11.33000       -5.12100
H         14.57200       11.41200       -6.05300
H         14.81500       10.42500       -4.60300
H         14.91400       12.19700       -4.49700
C         17.02900       12.51800       -6.18700
H         16.40100       12.62200       -7.07200
H         16.89500       13.39900       -5.55700
H         18.06500       12.45500       -6.51200
C         19.67000       10.92800       -2.93000
O         20.52600       11.79300       -2.75800
N         19.42800       10.01000       -2.00500
H         19.91000       10.07400       -1.12200
H         18.72900        9.30400       -2.17000
H         29.53800        7.74100       -6.99900
C         29.62400        7.95800       -5.93600
H         30.42000        8.68400       -5.77400
H         29.86600        7.04100       -5.39700
C         28.32100        8.51300       -5.41500
O         27.70500        7.92700       -4.52900
N         27.86400        9.63400       -5.98800
H         28.43800       10.04700       -6.71100
C         26.70500       10.40800       -5.49100
H         26.94200       10.70400       -4.46600
C         26.55500       11.70100       -6.32500
H         27.53000       12.19200       -6.35700
H         26.27400       11.45800       -7.35200
C         25.55300       12.70900       -5.72200
H         25.49800       12.55400       -4.64300
H         25.93900       13.71700       -5.87800
C         24.14400       12.64800       -6.34600
H         24.13600       13.28200       -7.23400
H         23.90000       11.63400       -6.66500
C         23.06800       13.14600       -5.36800
H         23.43700       14.04100       -4.85800
H         22.17600       13.42500       -5.93600
N         22.71400       12.09400       -4.38400
H         23.53400       11.69200       -3.94700
H         22.05700       12.40800       -3.67200
H         22.26300       11.30700       -4.84600
C         25.39400        9.61200       -5.38700
O         24.51500       10.01700       -4.63100
N         25.26500        8.47300       -6.07100
H         26.03200        8.19700       -6.66300
C         24.14900        7.53400       -5.89800
H         23.23200        8.11300       -5.97700
C         24.16000        6.50600       -7.03900
H         25.18300        6.16500       -7.20600
H         23.57300        5.63400       -6.74900
S         23.47900        7.11000       -8.60200
C         24.09200        6.82500       -4.52500
O         23.14200        6.07700       -4.28600
N         25.05700        7.05600       -3.62500
H         25.85200        7.61200       -3.92300
C         25.10700        6.54100       -2.24700
H         26.05100        6.88100       -1.81800
C         23.98100        7.15600       -1.38000
H         23.03200        6.70300       -1.66800
H         24.17000        6.88300       -0.34100
C         23.80600        8.68600       -1.46300
H         23.50600        8.95900       -2.47300
C         22.68900        9.12800       -0.51800
H         22.96300        8.90700        0.51500
H         22.52100       10.20000       -0.62000
H         21.76800        8.60100       -0.76400
C         25.08000        9.44900       -1.09800
H         24.88600       10.52100       -1.11000
H         25.41600        9.16200       -0.10100
H         25.86800        9.23500       -1.81900
C         25.15700        5.00200       -2.19300
O         24.19200        4.33400       -1.82800
N         26.26800        4.41500       -2.61500
H         26.33000        3.41000       -2.57300
H         27.05000        4.97200       -2.92300
