120
2 1
H         22.44700        7.40200       -5.57600
C         22.79900        8.43300       -5.60800
H         22.96400        8.78100       -4.58900
H         22.05000        9.05700       -6.09300
C         24.09500        8.49300       -6.38000
O         24.54600        7.47200       -6.88200
N         24.66700        9.70000       -6.48500
H         24.15600       10.43900       -6.02400
C         25.96500       10.08600       -7.09800
H         25.87700       11.15300       -7.29500
C         27.12400        9.89700       -6.09700
H         26.89900        9.04800       -5.44800
H         28.05100        9.66100       -6.62100
C         27.35300       11.14600       -5.22700
H         26.39600       11.62800       -5.02000
H         27.75500       10.81100       -4.26900
C         28.34100       12.19100       -5.78900
H         28.37100       13.01000       -5.06700
H         29.34400       11.76000       -5.80700
C         28.02200       12.80800       -7.16400
H         26.94600       12.96900       -7.26400
H         28.50400       13.79000       -7.19600
N         28.55600       12.00100       -8.28800
H         29.17500       12.56200       -8.87500
H         29.17700       11.27700       -7.93600
H         27.84900       11.57800       -8.88300
C         26.30500        9.50200       -8.47500
O         26.47200       10.28700       -9.40600
N         26.46600        8.18900       -8.60500
H         26.27900        7.62700       -7.78200
C         26.54400        7.49100       -9.88900
H         27.29200        7.96900      -10.52200
C         26.96600        6.03600       -9.63800
H         26.16000        5.53800       -9.09500
H         27.06700        5.52600      -10.59800
S         28.48300        5.75100       -8.68500
C         25.18100        7.51800      -10.61200
O         25.11900        7.78700      -11.81300
N         24.09200        7.28600       -9.86700
H         24.23400        7.11900       -8.87600
C         22.71000        7.18100      -10.35600
H         22.69300        6.48700      -11.19700
C         21.82200        6.61000       -9.22200
H         22.06600        7.12300       -8.29100
H         20.78000        6.84800       -9.43500
C         21.87600        5.08700       -8.96900
H         21.21900        4.88000       -8.12500
C         21.35000        4.29500      -10.16800
H         21.27700        3.24000       -9.89800
H         20.35400        4.64400      -10.43900
H         22.01800        4.38500      -11.02300
C         23.26400        4.55500       -8.61300
H         23.18100        3.50900       -8.31400
H         23.93200        4.61500       -9.47000
H         23.67200        5.11600       -7.77300
C         22.15200        8.52000      -10.88900
O         22.76400        9.58100      -10.76900
N         20.99000        8.49100      -11.52700
H         20.58800        9.35600      -11.85100
H         20.48900        7.62200      -11.62800
H         33.56200        8.55300      -14.21000
C         33.58800        9.62900      -14.05000
H         33.56500       10.14500      -15.00900
H         34.50600        9.89400      -13.52600
C         32.40200       10.05500      -13.21900
O         32.57500       10.60100      -12.13700
N         31.18700        9.76800      -13.70000
H         31.16600        9.30300      -14.59700
C         29.89500       10.22700      -13.13700
H         29.81500       11.30100      -13.31400
C         28.77400        9.50500      -13.91800
H         28.79500        9.83900      -14.95700
H         28.98700        8.43400      -13.91300
C         27.34600        9.68100      -13.37300
H         26.68100        9.04500      -13.95700
H         27.31500        9.32200      -12.34600
C         26.80900       11.12200      -13.42300
H         27.58600       11.81900      -13.10800
H         26.52600       11.37000      -14.44800
C         25.61000       11.30800      -12.48200
H         25.96400       11.17000      -11.45500
H         25.24300       12.33400      -12.57300
N         24.51500       10.34600      -12.75200
H         24.11400       10.47100      -13.66900
H         24.85100        9.38800      -12.65900
H         23.78500       10.42200      -12.04500
C         29.73800       10.04200      -11.61600
O         29.05100       10.83300      -10.96800
N         30.35100        9.01300      -11.03300
H         30.90500        8.40300      -11.61300
C         30.32000        8.77000       -9.59100
H         29.28100        8.73300       -9.26400
C         30.94600        7.40300       -9.31500
H         31.95800        7.38500       -9.72200
H         31.02500        7.25900       -8.23500
S         30.02400        6.00000       -9.99600
C         31.01800        9.86600       -8.76100
O         30.56100       10.14700       -7.65300
N         32.05100       10.52700       -9.29500
H         32.29600       10.33400      -10.26200
C         32.85100       11.55700       -8.61800
H         33.14200       11.17900       -7.63700
C         34.13300       11.81700       -9.44000
H         33.84200       12.25200      -10.39700
H         34.74300       12.55700       -8.91900
C         35.01300       10.58000       -9.71400
H         34.43300        9.82100      -10.24000
C         36.19200       10.97400      -10.60200
H         36.79800       10.09600      -10.82400
H         35.82400       11.38900      -11.54000
H         36.81300       11.71700      -10.10000
C         35.56300        9.96700       -8.42500
H         36.22300        9.13400       -8.66900
H         36.12900       10.71100       -7.86500
H         34.75000        9.58500       -7.80900
C         32.07900       12.87200       -8.37700
O         30.97600       13.08400       -8.87900
N         32.63800       13.77600       -7.58400
H         32.16600       14.65400       -7.44100
H         33.54500       13.60500       -7.18100
