97
-1 1
H         -2.36200       -0.17600       20.51000
C         -1.63600       -0.98700       20.49700
H         -1.83500       -1.67500       21.31700
H         -0.62900       -0.58600       20.58700
C         -1.75500       -1.73600       19.19000
O         -2.02900       -2.93000       19.19200
N         -1.55300       -1.02400       18.08500
H         -1.32600       -0.04500       18.17100
C         -1.62500       -1.54600       16.71800
H         -1.23200       -2.56400       16.70200
C         -3.09200       -1.59500       16.25200
H         -3.12100       -1.87100       15.19800
H         -3.59300       -2.39600       16.79700
C         -3.88700       -0.31200       16.43600
C         -4.76700       -0.18000       17.52700
H         -4.86900       -0.98900       18.23700
C         -5.51500        1.00000       17.69600
H         -6.19100        1.09600       18.53300
C         -5.38700        2.05100       16.77000
H         -5.96300        2.95700       16.89500
C         -4.50800        1.92400       15.68100
H         -4.40600        2.72800       14.96600
C         -3.75800        0.74600       15.51600
H         -3.07800        0.66000       14.68100
C         -0.76200       -0.70400       15.76400
O         -0.50400        0.47200       16.01900
N         -0.32900       -1.31200       14.66200
H         -0.60100       -2.28600       14.53800
C          0.46000       -0.69300       13.59700
H          1.04100        0.13100       14.01500
C          1.44300       -1.74000       13.05400
H          0.90700       -2.65800       12.80800
H          1.87500       -1.34500       12.13300
S          2.82000       -2.12000       14.17700
C         -0.40300       -0.09700       12.46700
O          0.08300        0.73600       11.70600
N         -1.67100       -0.50700       12.34900
H         -1.95900       -1.30200       12.91300
C         -2.61400       -0.03900       11.32100
H         -2.34200        0.97600       11.02900
C         -2.48800       -0.93300       10.08000
H         -3.02500       -0.46500        9.25400
H         -1.43600       -1.01500        9.80100
O         -3.02100       -2.22900       10.28700
H         -2.74900       -2.56600       11.17200
C         -4.07100        0.01000       11.80600
O         -4.81600        0.91400       11.44300
N         -4.49400       -0.90300       12.67200
H         -5.44100       -0.84900       13.00400
H         -3.89400       -1.68600       12.90400
H         -1.09300       -5.97300       17.66000
C         -1.46300       -6.98000       17.47100
H         -2.52500       -7.02600       17.70600
H         -0.91700       -7.69500       18.08300
C         -1.26400       -7.32200       16.01500
O         -0.61300       -8.30600       15.69100
N         -1.79400       -6.47900       15.13600
H         -2.19100       -5.61800       15.48900
C         -1.63100       -6.56500       13.67400
H         -1.99500       -7.53600       13.33700
C         -2.47500       -5.46700       12.99800
H         -2.36400       -5.55700       11.91600
H         -3.52500       -5.64300       13.23700
C         -2.11900       -4.03300       13.41700
O         -1.40600       -3.83800       14.42500
O         -2.56800       -3.08600       12.73500
C         -0.16400       -6.44400       13.21300
O          0.19100       -6.93300       12.14100
N          0.70400       -5.85600       14.04200
H          0.29500       -5.37000       14.83000
C          2.14300       -5.70000       13.81700
H          2.28800       -5.04200       12.96000
C          2.75000       -5.03400       15.05800
H          2.62900       -5.71700       15.90000
H          3.82100       -4.90600       14.89200
S          2.06700       -3.42700       15.54900
C          2.90800       -7.01100       13.52900
O          4.05800       -6.95000       13.09700
N          2.31200       -8.18900       13.76300
H          1.36800       -8.17600       14.12900
C          2.88600       -9.49300       13.36900
H          3.94200       -9.48900       13.64100
C          2.22100      -10.66200       14.12500
H          2.76600      -11.57400       13.87800
C          2.32300      -10.48000       15.64500
H          3.36200      -10.31300       15.92600
H          1.72000       -9.63100       15.97000
H          1.96100      -11.37700       16.14600
C          0.75300      -10.88400       13.73500
H          0.33000      -11.69000       14.33400
H          0.17200       -9.97800       13.90200
H          0.68100      -11.16300       12.68500
C          2.84000       -9.75300       11.85400
O          3.46300      -10.69100       11.37000
N          2.11000       -8.96400       11.07400
H          1.57200       -8.20600       11.47800
H          2.09900       -9.14000       10.08500
