97
-1 1
H         -8.80500        2.88100        4.74600
C         -9.05100        2.36100        5.67000
H         -9.17300        1.30200        5.46000
H         -9.97300        2.75600        6.09000
C         -7.93400        2.56100        6.66700
O         -7.12600        3.46900        6.50300
N         -7.88100        1.72600        7.70000
H         -8.44900        0.88400        7.65600
C         -6.91600        1.82800        8.80200
H         -6.89800        2.86000        9.15300
C         -7.38700        0.93000        9.95500
H         -7.36900       -0.10700        9.62000
H         -6.67800        1.01900       10.78000
C         -8.77700        1.24500       10.47600
C         -9.88600        0.49700       10.03300
H         -9.74500       -0.30100        9.31700
C        -11.17500        0.79400       10.51000
H        -12.02300        0.22000       10.16300
C        -11.36000        1.83800       11.43400
H        -12.35100        2.06700       11.79900
C        -10.25500        2.58700       11.87800
H        -10.39600        3.39200       12.58400
C         -8.96600        2.29100       11.39900
H         -8.11800        2.86900       11.73600
C         -5.47700        1.47000        8.39200
O         -4.53200        1.93800        9.02400
N         -5.31000        0.68300        7.32600
H         -6.14900        0.31200        6.88200
C         -4.02600        0.31800        6.72000
H         -3.23300        0.88800        7.20500
C         -3.74200       -1.17300        6.97500
H         -4.60200       -1.76700        6.66300
H         -2.89400       -1.46400        6.35500
S         -3.30700       -1.57800        8.69100
C         -3.94200        0.68100        5.22000
O         -2.97800        0.30700        4.55400
N         -4.92800        1.40800        4.68100
H         -5.72200        1.61200        5.27300
C         -5.05700        1.70200        3.24200
H         -4.08400        1.57800        2.76700
C         -6.01100        0.68500        2.60600
H         -6.08700        0.88500        1.53600
H         -5.61400       -0.32200        2.74600
O         -7.29700        0.76400        3.18800
H         -7.24900        0.32100        4.07100
C         -5.51300        3.13100        2.90800
O         -5.39800        3.56400        1.76600
N         -5.99100        3.91800        3.86400
H         -6.27600        4.84900        3.61500
H         -6.11400        3.57700        4.80700
H        -10.89300       -4.91900        9.80900
C        -10.69600       -4.06100        9.16700
H        -10.19900       -3.27900        9.73800
H        -11.63000       -3.68200        8.75900
C         -9.80100       -4.49300        8.03200
O         -9.43400       -5.65700        7.93900
N         -9.41400       -3.54000        7.19300
H         -9.64700       -2.57600        7.40900
C         -8.48800       -3.72900        6.06600
H         -8.87700       -4.51500        5.41800
C         -8.39500       -2.42900        5.24600
H         -7.69900       -2.58500        4.42000
H         -9.37600       -2.22400        4.81300
C         -7.96200       -1.19500        6.04900
O         -7.18400       -0.38300        5.50300
O         -8.42500       -1.00700        7.19700
C         -7.07900       -4.16300        6.50700
O         -6.37400       -4.82800        5.75300
N         -6.68800       -3.86300        7.74900
H         -7.27100       -3.23300        8.28100
C         -5.47600       -4.40200        8.37400
H         -4.62800       -4.20100        7.71800
C         -5.24700       -3.68100        9.70800
H         -6.07800       -3.91700       10.37300
H         -4.33700       -4.07700       10.16100
S         -5.08500       -1.87900        9.63500
C         -5.51300       -5.92900        8.62300
O         -4.48900       -6.49600        9.00000
N         -6.67500       -6.58400        8.46400
H         -7.45800       -6.03300        8.12900
C         -6.97200       -8.01900        8.68800
H         -8.03300       -8.14000        8.46700
C         -6.22200       -8.91700        7.67400
H         -5.14800       -8.82200        7.83300
C         -6.58700      -10.40200        7.82200
H         -6.27100      -10.77400        8.79600
H         -7.66500      -10.53200        7.72000
H         -6.07800      -10.98700        7.05600
C         -6.53600       -8.51700        6.22500
H         -6.18100       -7.50500        6.03000
H         -6.02800       -9.18800        5.53300
H         -7.61100       -8.55700        6.04800
C         -6.81600       -8.51400       10.13700
O         -7.64800       -9.26900       10.62700
N         -5.80000       -8.09800       10.87600
H         -5.10200       -7.49800       10.45700
H         -5.72500       -8.42500       11.82400
