97
-1 1
H         -1.77200       -5.86200       10.55300
C         -2.14800       -5.72300        9.54200
H         -2.58200       -6.65900        9.19500
H         -1.33700       -5.42200        8.88300
C         -3.21400       -4.65400        9.52800
O         -4.17600       -4.75700        8.77600
N         -3.03500       -3.63400       10.36100
H         -2.17200       -3.59000       10.87700
C         -3.94700       -2.49900       10.51900
H         -4.80600       -2.61900        9.85800
C         -4.45900       -2.48100       11.96700
H         -5.11300       -3.34100       12.11700
H         -3.60700       -2.60400       12.63800
C         -5.20300       -1.22400       12.37600
C         -6.55400       -1.05200       12.02400
H         -7.05800       -1.79800       11.42600
C         -7.24700        0.10300       12.42700
H         -8.28000        0.23900       12.14100
C         -6.59300        1.08500       13.19100
H         -7.12900        1.97300       13.49900
C         -5.23800        0.92800       13.52600
H         -4.72900        1.69400       14.09400
C         -4.54300       -0.22400       13.11700
H         -3.49800       -0.34000       13.36900
C         -3.24600       -1.18900       10.13900
O         -2.14800       -0.91600       10.62800
N         -3.88900       -0.38900        9.29000
H         -4.79500       -0.70200        8.94200
C         -3.35900        0.85800        8.73600
H         -2.51000        1.18600        9.33500
C         -2.86700        0.61200        7.29900
H         -3.71800        0.32600        6.68100
H         -2.50400        1.56600        6.91600
S         -1.53900       -0.60300        7.03800
C         -4.38600        2.00900        8.73900
O         -3.99900        3.15300        8.50400
N         -5.67500        1.74000        8.99700
H         -5.92600        0.75900        9.10300
C         -6.79200        2.68500        8.78600
H         -7.70700        2.12500        8.97300
C         -6.76600        3.83500        9.80300
H         -5.86200        4.43100        9.67300
H         -7.63300        4.47900        9.65000
O         -6.81400        3.31700       11.11600
H         -6.12300        2.64800       11.18300
C         -6.92300        3.20100        7.33900
O         -7.40000        4.30600        7.09700
N         -6.51600        2.42400        6.34300
H         -6.59800        2.76100        5.40100
H         -6.18500        1.48300        6.54000
H         -6.72300       -6.49100       10.06600
C         -7.01700       -5.44600        9.98800
H         -6.22800       -4.81500       10.39000
H         -7.94100       -5.27300       10.53400
C         -7.23800       -5.11100        8.53200
O         -7.36000       -6.00600        7.70700
N         -7.31500       -3.81900        8.22800
H         -7.13300       -3.13400        8.95300
C         -7.68600       -3.28600        6.90900
H         -8.59500       -3.78400        6.57000
C         -7.97900       -1.78400        7.05500
H         -8.22600       -1.36500        6.07800
H         -8.84900       -1.65600        7.70100
C         -6.79900       -1.02200        7.66300
O         -6.07100       -0.33000        6.92600
O         -6.58600       -1.12300        8.89200
C         -6.62600       -3.48600        5.81000
O         -6.97800       -3.49700        4.63100
N         -5.34800       -3.64100        6.17100
H         -5.13100       -3.64700        7.16000
C         -4.23200       -3.69200        5.21600
H         -4.63300       -3.59400        4.20700
C         -3.33200       -2.47300        5.44700
H         -2.58700       -2.43700        4.65200
H         -3.95300       -1.57900        5.36500
S         -2.47000       -2.41900        7.03900
C         -3.46100       -5.02500        5.22100
O         -2.60600       -5.23000        4.36000
N         -3.78300       -5.93800        6.14800
H         -4.46800       -5.63800        6.83300
C         -3.30000       -7.33200        6.28600
H         -3.79800       -7.73400        7.16800
C         -3.77800       -8.20200        5.09800
H         -3.32300       -7.83600        4.17800
C         -3.39500       -9.68100        5.25400
H         -2.31100       -9.79300        5.24500
H         -3.78800      -10.07100        6.19300
H         -3.80000      -10.26000        4.42400
C         -5.30600       -8.14600        4.93800
H         -5.62700       -7.13000        4.70400
H         -5.62200       -8.79300        4.12000
H         -5.79300       -8.46500        5.86000
C         -1.79600       -7.50100        6.57400
O         -1.41100       -8.36900        7.34900
N         -0.91300       -6.67300        6.03700
H          0.06000       -6.79100        6.25600
H         -1.23500       -5.96900        5.38500
