108
0 1
H         -9.42900        5.16800       26.63100
C         -8.82000        4.41900       27.13300
H         -9.46200        3.74800       27.70300
H         -8.11000        4.90200       27.80100
C         -8.06700        3.61400       26.10000
O         -8.23900        2.40500       26.01700
N         -7.22500        4.28700       25.32000
H         -7.10100        5.27600       25.47800
C         -6.39300        3.68100       24.27600
H         -6.12800        2.67100       24.59200
C         -7.20800        3.56900       22.97600
H         -8.10500        2.98000       23.17300
H         -7.53100        4.56800       22.68000
C         -6.47000        2.92000       21.81800
C         -6.14900        3.68000       20.67800
H         -6.43600        4.72100       20.61800
C         -5.41400        3.10400       19.62700
H         -5.14800        3.69900       18.76900
C         -4.98800        1.76300       19.71200
O         -4.25400        1.21700       18.70600
H         -3.69900        0.49300       19.04900
C         -5.31500        0.99700       20.85300
H         -4.98700       -0.03000       20.91600
C         -6.06200        1.57400       21.90000
H         -6.31900        0.98200       22.76900
C         -5.07400        4.45900       24.09800
O         -4.93800        5.58700       24.57100
N         -4.08000        3.83000       23.47100
H         -4.29800        2.96100       23.00200
C         -2.73900        4.37700       23.25900
H         -2.51000        5.03900       24.09400
C         -1.76000        3.19100       23.32200
H         -0.74300        3.54500       23.16700
H         -1.80800        2.78300       24.33200
S         -2.06600        1.81700       22.17600
C         -2.62400        5.21700       21.95900
O         -3.57500        5.27900       21.18000
N         -1.47500        5.87900       21.69300
C         -0.41700        6.18600       22.64400
H          0.37000        5.43300       22.57200
H         -0.78500        6.25500       23.66700
C          0.12800        7.54100       22.20300
H          1.15100        7.69900       22.54700
H         -0.53000        8.33700       22.55400
C          0.04900        7.43100       20.68300
H          0.92700        6.89000       20.32900
H         -0.00200        8.41300       20.21100
C         -1.24000        6.62300       20.44800
H         -2.06300        7.32800       20.31500
C         -1.17300        5.71800       19.20000
O         -0.11100        5.27800       18.76900
N         -2.31300        5.40000       18.60800
H         -2.28700        4.79200       17.80400
H         -3.18600        5.64900       19.05000
H          5.48000        6.41900       14.67000
C          5.23000        5.39300       14.93600
H          5.85900        5.06500       15.76100
H          5.37700        4.74500       14.07400
C          3.78100        5.33700       15.36000
O          3.10300        6.35500       15.35800
N          3.31700        4.14400       15.72300
H          3.94700        3.35600       15.71700
C          1.94800        3.87600       16.17400
H          1.57300        4.75300       16.70700
C          1.05400        3.64700       14.94200
H          1.16400        4.49500       14.26400
H          1.40400        2.76000       14.41200
C         -0.42000        3.48200       15.25600
C         -1.26900        4.60500       15.31100
H         -0.87300        5.59000       15.10100
C         -2.62700        4.44400       15.65000
H         -3.28900        5.29600       15.69600
C         -3.12500        3.16500       15.97800
O         -4.40200        3.02100       16.41000
H         -4.47200        2.27800       17.02600
C         -2.27800        2.04200       15.90500
H         -2.65200        1.06300       16.16300
C         -0.93600        2.20200       15.51700
H         -0.28700        1.33800       15.46400
C          1.93600        2.68400       17.15200
O          2.77100        1.78400       17.04400
N          1.03900        2.69900       18.13900
H          0.39200        3.47900       18.17500
C          0.96600        1.70300       19.21500
H          1.98700        1.44100       19.49100
C          0.32000        2.39400       20.42400
H          0.58900        1.84800       21.32500
H          0.73700        3.39700       20.52700
S         -1.48300        2.52400       20.36400
C          0.24300        0.38700       18.81100
O         -0.26400        0.27200       17.69600
N          0.16400       -0.63800       19.68600
C          0.85700       -0.77200       20.95800
H          0.27000       -0.29100       21.74200
H          1.86300       -0.35400       20.92000
C          0.92100       -2.27400       21.22500
H          0.98400       -2.49300       22.29100
H          1.76600       -2.70800       20.68800
C         -0.39000       -2.76900       20.61800
H         -1.20500       -2.59000       21.32300
H         -0.34000       -3.82500       20.35100
C         -0.55600       -1.87800       19.38100
H         -0.05700       -2.35400       18.53700
C         -2.03800       -1.66200       19.02500
O         -2.74300       -0.85400       19.62500
N         -2.55700       -2.41600       18.06600
H         -3.52400       -2.28000       17.82200
H         -1.97500       -3.06100       17.55800
