108
0 1
H         -0.98600        3.56000       28.09500
C         -1.60500        3.38400       27.21600
H         -2.02900        4.32500       26.87300
H         -2.40100        2.68500       27.46400
C         -0.74500        2.79500       26.12300
O          0.44600        2.59300       26.31800
N         -1.35200        2.52200       24.97000
H         -2.33400        2.73600       24.87500
C         -0.68200        1.96900       23.79000
H          0.33400        2.36300       23.74500
C         -0.60000        0.43700       23.91300
H          0.03800        0.18500       24.76100
H         -1.59700        0.05000       24.13000
C         -0.06400       -0.26700       22.67800
C          1.31500       -0.23700       22.39300
H          1.99600        0.26200       23.06900
C          1.80800       -0.85500       21.22600
H          2.86200       -0.83100       20.99600
C          0.92300       -1.51100       20.34500
O          1.40000       -2.12300       19.22700
H          0.85600       -2.87500       18.98700
C         -0.46000       -1.54300       20.63200
H         -1.14100       -2.03800       19.95800
C         -0.95000       -0.91400       21.79300
H         -2.01100       -0.92500       22.00600
C         -1.40500        2.38200       22.50100
O         -2.62800        2.51900       22.48700
N         -0.64800        2.52500       21.41200
H          0.33800        2.31900       21.49200
C         -1.14400        2.74000       20.05400
H         -2.20800        2.50200       20.02000
C         -0.95600        4.21000       19.65600
H          0.10800        4.44700       19.67700
H         -1.30000        4.33300       18.63100
S         -1.82000        5.42200       20.69100
C         -0.38500        1.80500       19.09400
O          0.80200        1.56500       19.32100
N         -1.01600        1.27500       18.02900
C         -2.36400        1.58000       17.57900
H         -2.57300        2.64900       17.62000
H         -3.08400        1.03400       18.19100
C         -2.42800        1.08200       16.13700
H         -2.01400        1.83500       15.46700
H         -3.44400        0.82000       15.84300
C         -1.50600       -0.13700       16.16600
H         -1.10200       -0.35900       15.17700
H         -2.05700       -0.99700       16.55000
C         -0.41200        0.25600       17.16800
H         -0.16700       -0.61700       17.76900
C          0.87100        0.74500       16.47800
O          0.86400        1.69800       15.70500
N          1.99100        0.08100       16.72900
H          1.99500       -0.65100       17.42400
H          2.84200        0.39300       16.29200
H          1.89400        3.36700       17.78500
C          2.25100        4.34200       17.46300
H          3.04500        4.21100       16.73000
H          2.62900        4.89600       18.32100
C          1.11900        5.11300       16.83100
O          0.83500        6.23600       17.23300
N          0.46100        4.52100       15.83800
H          0.70900        3.56600       15.59800
C         -0.62900        5.15900       15.09600
H         -0.34000        6.19300       14.90200
C         -0.79400        4.48100       13.72700
H          0.16500        4.49500       13.20700
H         -1.07400        3.43600       13.87000
C         -1.82600        5.16900       12.85300
C         -1.49500        6.36300       12.18100
H         -0.48900        6.75500       12.23600
C         -2.48300        7.06300       11.46000
H         -2.25200        7.99200       10.96400
C         -3.80400        6.57100       11.41900
O         -4.78700        7.30400       10.83800
H         -5.60500        7.22500       11.35100
C         -4.12300        5.35600       12.05700
H         -5.13400        4.98100       12.01500
C         -3.13400        4.65600       12.77100
H         -3.39100        3.74500       13.29400
C         -1.93100        5.20700       15.91900
O         -2.81800        4.36600       15.78100
N         -2.04600        6.19200       16.81100
H         -1.22300        6.75400       16.99800
C         -3.23100        6.37900       17.65300
H         -3.40800        5.44100       18.18100
C         -2.94300        7.45000       18.71400
H         -2.84000        8.41700       18.22200
H         -3.80600        7.50800       19.37900
S         -1.47000        7.18800       19.73900
C         -4.54800        6.70200       16.90100
O         -5.58100        6.18400       17.32500
N         -4.59000        7.52900       15.82800
C         -3.48800        8.29600       15.24900
H         -2.74900        7.64100       14.79000
H         -3.02300        8.91400       16.01800
C         -4.09000        9.19600       14.16800
H         -4.00100        8.71400       13.19700
H         -3.61500       10.17700       14.15000
C         -5.56300        9.29000       14.55400
H         -6.19800        9.51900       13.69700
H         -5.68400       10.05600       15.32100
C         -5.84400        7.91400       15.16700
H         -6.62800        8.03200       15.91600
C         -6.33900        6.84800       14.16400
O         -6.58000        7.11500       12.98900
N         -6.47100        5.60300       14.60000
H         -6.78500        4.89300       13.96200
H         -6.26200        5.39400       15.56800
