101
-1 1
H         49.53600      -46.09300        7.21700
C         50.10600      -45.19700        6.97700
H         49.64300      -44.33900        7.46300
H         50.13100      -45.04700        5.90000
C         51.51700      -45.35500        7.49200
O         52.46500      -45.29400        6.71900
N         51.64400      -45.55800        8.80000
H         50.78100      -45.59900        9.33400
C         52.92200      -45.71900        9.51100
H         53.62800      -46.18100        8.82000
C         53.50000      -44.33600        9.86900
H         54.40400      -44.47400       10.46400
H         53.80800      -43.85100        8.94200
C         52.56300      -43.39500       10.60500
C         52.51000      -43.41200       12.01100
H         53.14000      -44.09300       12.56700
C         51.61400      -42.56500       12.69200
H         51.54600      -42.59200       13.76800
C         50.76600      -41.70200       11.96900
O         49.82400      -40.98000       12.62600
H         49.46100      -41.51000       13.35500
C         50.84700      -41.65500       10.56100
H         50.18800      -40.99700       10.01700
C         51.74500      -42.50200        9.88200
H         51.79000      -42.48700        8.80200
C         52.86500      -46.68100       10.72100
O         53.91700      -47.07900       11.21500
N         51.67700      -47.14100       11.13200
H         50.84700      -46.72200       10.72500
C         51.48700      -48.37900       11.90900
H         52.45500      -48.82700       12.13700
C         50.77400      -48.09000       13.23500
H         49.87000      -47.51400       13.03800
H         50.47400      -49.04800       13.65700
S         51.75000      -47.26200       14.50700
C         50.67400      -49.43200       11.13600
O         50.94400      -50.62400       11.24800
N         49.68200      -49.00300       10.35300
H         49.49400      -48.00400       10.32200
C         48.77100      -49.86400        9.58400
H         48.58100      -50.77000       10.15900
C         47.43100      -49.14600        9.39000
H         47.57500      -48.24800        8.78600
H         46.73800      -49.81200        8.87500
O         46.87600      -48.78800       10.64200
H         47.25600      -47.91500       10.91100
C         49.32900      -50.30600        8.22100
O         48.65100      -50.98300        7.45700
N         50.55200      -49.92900        7.86600
H         50.90300      -50.22200        6.97000
H         51.10700      -49.38100        8.50100
H         43.48500      -46.45600       11.92000
C         44.34900      -47.11100       11.83400
H         45.03500      -46.72900       11.08000
H         44.02600      -48.11000       11.55000
C         45.06500      -47.17100       13.16400
O         44.82700      -46.32700       14.02000
N         45.93500      -48.16700       13.32100
H         46.13000      -48.71700       12.49200
C         46.60600      -48.57000       14.56500
H         45.83700      -48.90400       15.26200
C         47.50100      -49.77500       14.20900
H         46.86600      -50.56500       13.80500
H         48.18300      -49.47000       13.41500
C         48.33700      -50.36600       15.36100
H         49.02600      -49.61200       15.74000
C         47.46700      -50.88300       16.50900
H         46.93300      -50.05300       16.97100
H         46.75100      -51.61600       16.13900
H         48.09900      -51.34300       17.26800
C         49.15900      -51.54600       14.83700
H         49.79100      -51.22500       14.00800
H         49.79900      -51.93000       15.63100
H         48.49900      -52.34000       14.48800
C         47.38100      -47.44300       15.28400
O         47.46200      -47.45200       16.51000
N         47.90300      -46.45700       14.55200
H         47.84200      -46.54100       13.54000
C         48.32500      -45.16200       15.11600
H         47.66800      -44.94900       15.96100
C         49.75800      -45.24800       15.66300
H         49.93100      -44.35100       16.25800
H         49.83100      -46.10200       16.33800
S         51.10000      -45.34300       14.44700
C         48.13000      -43.99100       14.12900
O         48.72600      -42.92100       14.26500
N         47.31500      -44.22600       13.10200
H         46.85900      -45.12900       13.09200
C         47.35900      -43.55100       11.80300
H         47.64400      -42.51000       11.95300
C         48.44200      -44.21700       10.92500
H         48.41500      -43.78500        9.92400
H         49.40800      -43.96000       11.35400
C         48.42700      -45.74900       10.81500
O         47.69900      -46.46700       11.54000
O         49.24100      -46.27000       10.02500
C         45.98600      -43.52300       11.09700
O         45.87100      -43.13800        9.93900
N         44.90800      -43.91100       11.76700
H         44.02000      -43.88500       11.29600
H         44.99600      -44.24800       12.71500
