101
-1 1
H         49.31200      -48.81500        9.50300
C         50.25700      -48.27600        9.49400
H         50.18500      -47.39300       10.12600
H         50.50600      -47.97200        8.47900
C         51.34900      -49.17500       10.02300
O         51.08700      -50.31900       10.37500
N         52.56600      -48.64600       10.08400
H         52.66200      -47.68300        9.76800
C         53.77400      -49.33700       10.55400
H         53.46900      -50.21300       11.12900
C         54.58300      -49.84700        9.35200
H         55.49600      -50.31600        9.72200
H         54.00300      -50.63200        8.86400
C         54.94900      -48.80800        8.30600
C         54.05700      -48.53700        7.24800
H         53.10500      -49.04600        7.20400
C         54.40100      -47.60500        6.25100
H         53.71700      -47.38800        5.44400
C         55.65100      -46.95400        6.30000
O         55.98400      -46.05500        5.33800
H         55.19300      -45.65400        4.94700
C         56.54000      -47.21500        7.36300
H         57.48400      -46.69400        7.40000
C         56.18700      -48.13700        8.36900
H         56.87000      -48.33200        9.18400
C         54.62600      -48.48800       11.51300
O         55.23200      -49.04900       12.42200
N         54.60100      -47.15500       11.40100
H         54.11200      -46.75600       10.60300
C         54.83600      -46.27000       12.54900
H         55.50100      -46.75500       13.26600
C         55.49700      -44.96400       12.09900
H         54.88700      -44.51000       11.31800
H         55.52100      -44.28200       12.94800
S         57.19300      -45.12400       11.49600
C         53.51100      -45.97400       13.27100
O         53.43100      -46.06000       14.49200
N         52.45200      -45.68100       12.51100
H         52.60100      -45.61100       11.50400
C         51.07500      -45.50700       12.99000
H         51.11300      -45.02500       13.96700
C         50.34200      -44.55900       12.03400
H         50.92600      -43.64700       11.92000
H         50.23600      -45.03400       11.05700
O         49.06600      -44.22200       12.53800
H         48.62000      -45.06200       12.73400
C         50.31600      -46.83900       13.17300
O         49.08800      -46.87300       13.16100
N         51.00600      -47.96700       13.29600
H         50.50300      -48.83600       13.36700
H         52.01200      -47.93700       13.33600
H         49.75200      -40.48200        9.71000
C         50.34300      -41.26200       10.18500
H         50.80800      -41.88900        9.42600
H         49.70200      -41.87100       10.82100
C         51.41200      -40.62000       11.03800
O         51.34000      -39.42800       11.31000
N         52.40300      -41.41200       11.44300
H         52.38800      -42.37300       11.11100
C         53.55300      -40.98300       12.25500
H         53.41500      -39.94200       12.55000
C         53.61800      -41.84200       13.53200
H         53.75600      -42.88100       13.24000
H         54.49100      -41.53400       14.10900
C         52.37300      -41.76200       14.44100
H         51.50100      -42.13000       13.90100
C         52.58100      -42.64600       15.67000
H         53.42900      -42.28900       16.25400
H         51.68400      -42.63300       16.28900
H         52.77000      -43.67200       15.35800
C         52.08900      -40.34100       14.93500
H         51.81400      -39.70500       14.09400
H         51.25200      -40.35500       15.63300
H         52.96900      -39.93100       15.42900
C         54.88100      -41.01500       11.47300
O         55.79600      -40.25800       11.78700
N         54.97500      -41.84000       10.42700
H         54.22300      -42.51000       10.30100
C         56.01400      -41.75600        9.38700
H         56.31500      -40.71200        9.28800
C         57.24600      -42.57400        9.80800
H         58.08100      -42.25000        9.18600
H         57.49800      -42.34000       10.84300
S         57.10200      -44.37700        9.61000
C         55.53000      -42.22200        7.99800
O         56.28300      -42.19500        7.02900
N         54.29200      -42.71000        7.91100
H         53.70900      -42.60400        8.73200
C         53.95700      -43.89400        7.11300
H         54.77700      -44.60000        7.24200
C         52.69700      -44.55700        7.70800
H         51.83300      -43.93100        7.47900
H         52.54400      -45.52400        7.22800
C         52.75700      -44.75000        9.23200
O         52.71600      -45.90700        9.69700
O         52.84400      -43.74900        9.98200
C         53.81800      -43.66500        5.59500
O         53.68400      -44.61700        4.82800
N         53.86900      -42.42900        5.12000
H         54.07300      -41.67400        5.75500
H         53.81400      -42.29000        4.12600
