95
-1 1
H         14.01100       55.01700       37.08000
C         13.36000       54.51900       36.36300
H         12.68200       55.25000       35.92700
H         12.79500       53.73000       36.85600
C         14.20300       53.91600       35.26400
O         14.10400       52.72500       34.99500
N         15.02800       54.74600       34.63500
H         15.02300       55.71500       34.94200
C         15.91000       54.35700       33.52700
H         16.54400       53.53600       33.86000
H         15.29600       53.99700       32.70200
C         16.82600       55.46300       32.98300
O         17.50900       55.23100       31.99100
N         16.84700       56.64900       33.59900
H         16.22100       56.78500       34.38700
C         17.56500       57.84500       33.14800
H         17.26300       58.64300       33.82500
C         19.08200       57.67100       33.32100
H         19.41200       56.86400       32.66600
H         19.57300       58.58300       32.98000
S         19.67600       57.32400       35.00200
C         17.15400       58.33800       31.74200
O         17.99300       58.79800       30.96800
N         15.85700       58.27200       31.42000
H         15.22100       57.97300       32.15600
C         15.28800       58.61700       30.09700
H         16.00000       59.25200       29.56900
C         15.07200       57.35800       29.22800
H         14.57800       57.66300       28.30500
C         16.39800       56.70800       28.81900
H         16.91500       56.31400       29.69300
H         16.21000       55.89100       28.12200
H         17.03700       57.44700       28.33600
C         14.18200       56.30500       29.90400
H         14.66600       55.91900       30.80100
H         13.22100       56.74300       30.17300
H         14.00800       55.47900       29.21600
C         13.98700       59.43300       30.15800
O         13.54500       59.96900       29.15000
N         13.35100       59.57800       31.31200
H         13.69600       59.12100       32.14800
H         12.50400       60.11900       31.32600
H         17.64400       60.90000       33.05500
C         16.80600       61.58100       32.93200
H         16.10700       61.18600       32.19600
H         17.17500       62.54800       32.59500
C         16.12000       61.76400       34.26300
O         16.56900       62.56000       35.07600
N         15.04200       61.02200       34.50800
H         14.77200       60.30600       33.83900
C         14.25500       61.12500       35.74900
H         13.98600       62.17300       35.88600
C         12.94100       60.32600       35.61100
H         12.24300       60.69300       36.36400
H         12.50200       60.54800       34.63600
C         13.03200       58.79600       35.77300
H         13.19500       58.57100       36.82900
H         12.07200       58.35800       35.49100
C         14.14400       58.14900       34.94100
O         14.24700       58.43000       33.72600
O         14.96500       57.40200       35.51300
C         15.05200       60.71700       37.00200
O         14.80600       61.23300       38.09000
N         16.06000       59.85700       36.83300
H         16.14100       59.41000       35.93100
C         16.99800       59.43200       37.86900
H         16.42800       58.98100       38.68200
C         17.90000       58.35700       37.24700
H         18.42800       57.84500       38.05200
H         17.27200       57.62000       36.74400
S         19.14200       58.97300       36.07200
C         17.83600       60.58200       38.46600
O         18.42900       60.41500       39.52900
N         17.88400       61.74500       37.80100
H         17.37000       61.81400       36.93000
C         18.54800       62.96000       38.28600
H         19.44800       62.67200       38.83100
C         18.96300       63.82400       37.07700
H         18.05600       64.19700       36.59800
H         19.51800       64.68800       37.44600
C         19.81800       63.10800       36.01200
H         19.27500       62.25300       35.60900
C         20.10800       64.06600       34.85600
H         19.16500       64.39700       34.41900
H         20.66500       64.93100       35.21500
H         20.68500       63.55100       34.08800
C         21.15500       62.61600       36.57200
H         20.97700       61.85500       37.33200
H         21.74500       62.16800       35.77400
H         21.70600       63.44700       37.01200
C         17.68400       63.77000       39.27600
O         18.14700       64.75400       39.84300
N         16.42800       63.40200       39.50000
H         16.04000       62.59600       39.02500
H         15.88000       63.93600       40.15000
