95
-1 1
H         17.14500       48.60800       38.90900
C         18.10300       48.26400       39.29400
H         17.97700       47.31400       39.80900
H         18.50700       49.00500       39.98000
C         19.07400       48.07900       38.15000
O         19.91400       47.18900       38.21100
N         18.96900       48.91300       37.11800
H         18.34600       49.71400       37.22000
C         19.85900       48.90200       35.95000
H         20.01700       47.87300       35.62700
H         19.37700       49.45100       35.14100
C         21.23300       49.53900       36.19500
O         22.11300       49.42900       35.34600
N         21.42100       50.19400       37.34100
H         20.60500       50.33400       37.93400
C         22.67500       50.80700       37.78300
H         23.50200       50.45300       37.16600
C         22.52300       52.31600       37.58100
H         22.35700       52.51400       36.52100
H         21.63100       52.63300       38.12200
S         23.90500       53.33900       38.14000
C         23.00600       50.45200       39.24700
O         24.16300       50.20700       39.58000
N         21.99200       50.37100       40.11500
H         21.06900       50.64900       39.78400
C         22.10000       49.90500       41.51100
H         22.99500       50.34100       41.95500
C         20.87300       50.39400       42.31900
H         19.96700       50.00600       41.85200
C         20.87900       49.94000       43.78500
H         20.03800       50.38200       44.31800
H         20.78100       48.85700       43.84500
H         21.81100       50.24200       44.26400
C         20.79000       51.92900       42.33200
H         20.65100       52.30400       41.32000
H         19.93400       52.25300       42.92300
H         21.70300       52.35000       42.75300
C         22.26400       48.37700       41.60100
O         22.80500       47.86000       42.57200
N         21.83000       47.61500       40.60400
H         21.96700       46.62100       40.66600
H         21.39200       48.02400       39.79300
H         20.51500       54.94300       35.07900
C         19.72500       54.32100       35.49500
H         20.12800       53.35000       35.78000
H         18.93400       54.18100       34.76100
C         19.14800       55.00000       36.71100
O         19.43000       56.16300       36.96900
N         18.36500       54.26000       37.48700
H         18.20000       53.29000       37.21600
C         17.70500       54.72800       38.71900
H         17.06300       55.56800       38.45200
C         16.79900       53.61400       39.28200
H         16.19300       54.04300       40.08100
H         16.11200       53.29000       38.49900
C         17.52800       52.38200       39.85500
H         18.13900       52.69400       40.70400
H         16.77800       51.68400       40.23300
C         18.40000       51.65500       38.82400
O         17.95500       51.47100       37.67000
O         19.55000       51.29600       39.15300
C         18.66900       55.25400       39.80100
O         18.25300       56.02900       40.66000
N         19.96000       54.91200       39.73100
H         20.23600       54.27300       39.00000
C         21.01000       55.49600       40.57200
H         20.76000       55.30600       41.61700
C         22.33200       54.79000       40.25100
H         23.08600       55.11400       40.97000
H         22.19400       53.71700       40.38100
S         22.97800       55.09000       38.58200
C         21.16500       57.02300       40.40500
O         21.72300       57.67700       41.28300
N         20.66800       57.59800       39.30100
H         20.24200       56.99600       38.60300
C         20.63000       59.04400       39.05400
H         21.53800       59.49000       39.46300
C         20.60200       59.29400       37.53200
H         19.66300       58.90200       37.14000
H         20.60800       60.37100       37.35900
C         21.76500       58.66300       36.73800
H         21.77400       57.58300       36.88100
C         21.57500       58.93900       35.24600
H         21.57600       60.01300       35.05900
H         22.38000       58.46900       34.68100
H         20.62600       58.51400       34.92000
C         23.12700       59.22200       37.15700
H         23.90800       58.79400       36.52900
H         23.13400       60.30700       37.06000
H         23.33500       58.94700       38.19100
C         19.45400       59.75500       39.75800
O         19.32600       60.97200       39.67900
N         18.56700       59.03900       40.43900
H         17.81300       59.51900       40.89700
H         18.66500       58.03400       40.50700
