112
0 1
H          7.29900       30.00300       -5.97300
C          6.98200       30.55400       -5.08900
H          6.36800       31.40100       -5.39000
H          7.85400       30.90600       -4.54000
C          6.16900       29.64500       -4.19900
O          6.56800       29.35700       -3.07800
N          5.03100       29.17300       -4.69600
H          4.77500       29.44300       -5.64000
C          4.16100       28.23600       -3.98100
H          4.07200       28.56500       -2.94500
C          2.75600       28.25800       -4.60200
H          2.81600       27.92600       -5.63900
H          2.12800       27.54300       -4.06900
C          2.08000       29.61600       -4.56000
C          1.47900       30.06600       -3.36800
H          1.49400       29.43900       -2.48700
C          0.86200       31.33200       -3.31800
H          0.40500       31.67400       -2.40300
C          0.84800       32.15200       -4.46800
O          0.25800       33.37500       -4.43000
H         -0.09000       33.57900       -3.56200
C          1.44800       31.70100       -5.66200
H          1.43300       32.33600       -6.53400
C          2.06300       30.43500       -5.70700
H          2.52700       30.09600       -6.62300
C          4.77500       26.82700       -3.97900
O          4.54500       26.04600       -4.90000
N          5.59900       26.51900       -2.97300
H          5.84500       27.27100       -2.34100
C          6.35000       25.26300       -2.83200
H          6.80800       25.01000       -3.77900
C          7.49400       25.48200       -1.83100
H          7.05500       25.59900       -0.83900
H          8.12000       24.59000       -1.80700
S          8.56300       26.92600       -2.13000
C          5.45800       24.05600       -2.48400
O          5.44600       23.57600       -1.35100
N          4.69200       23.56800       -3.46300
H          4.74000       24.02600       -4.37000
C          3.77700       22.42600       -3.30200
H          3.23700       22.57300       -2.36600
C          2.72300       22.36500       -4.42700
H          2.09600       21.49100       -4.24600
C          1.80700       23.59500       -4.39000
H          2.37200       24.49600       -4.62900
H          1.00700       23.47900       -5.12000
H          1.36600       23.70000       -3.39900
C          3.31400       22.23000       -5.83500
H          2.51000       22.14800       -6.56600
H          3.91900       23.10400       -6.07800
H          3.93400       21.33700       -5.90000
C          4.52300       21.09100       -3.17200
O          5.55300       20.85600       -3.79600
N          4.00100       20.17000       -2.37500
H          3.16700       20.36700       -1.84800
H          4.48800       19.29400       -2.27900
H          7.61400       21.93100       -2.09500
C          8.61600       21.68500       -2.44400
H          8.71300       20.60500       -2.53300
H          9.35500       22.06700       -1.74200
C          8.84500       22.31400       -3.79700
O          9.76700       23.10200       -3.96900
N          7.99900       21.98100       -4.76600
H          7.22800       21.36400       -4.53500
C          8.05600       22.53100       -6.12200
H          9.09600       22.55400       -6.44900
C          7.27900       21.61400       -7.08000
H          6.23100       21.58700       -6.77800
H          7.31700       22.04400       -8.08200
C          7.80700       20.19300       -7.14400
C          8.94900       19.90100       -7.91600
H          9.44200       20.68900       -8.46800
C          9.45200       18.58600       -7.96800
H         10.32700       18.36600       -8.55900
C          8.80900       17.55800       -7.24400
O          9.28700       16.28800       -7.28500
H         10.07800       16.22000       -7.82100
C          7.66500       17.85000       -6.47200
H          7.18300       17.05800       -5.92100
C          7.16600       19.16600       -6.42300
H          6.29200       19.38900       -5.82600
C          7.51900       23.97000       -6.13600
O          6.32100       24.18600       -6.28400
N          8.39200       24.95800       -5.92100
H          9.33500       24.69100       -5.67000
C          8.03300       26.37400       -5.76600
H          7.22200       26.46300       -5.05700
C          9.22500       27.11700       -5.15300
H         10.03400       27.12700       -5.88500
H          8.93900       28.15200       -4.96100
S          9.87400       26.40600       -3.60900
C          7.51300       27.02100       -7.06300
O          8.26600       27.64000       -7.81300
N          6.20500       26.89800       -7.31700
H          5.65500       26.32300       -6.68200
C          5.53200       27.47900       -8.49000
H          6.08800       27.18700       -9.38000
C          4.09300       26.93600       -8.63400
H          3.52400       27.18100       -7.73800
C          3.37100       27.54400       -9.84500
H          3.93400       27.34600      -10.75800
H          2.37600       27.10600       -9.93800
H          3.25000       28.61900       -9.71600
C          4.08000       25.41200       -8.80900
H          3.05800       25.06200       -8.95300
H          4.68600       25.12300       -9.66800
H          4.47300       24.93000       -7.91500
C          5.53400       29.01000       -8.40800
O          4.91300       29.60300       -7.53200
N          6.21200       29.68000       -9.32800
H          6.77000       29.18200      -10.00300
H          6.22500       30.68500       -9.27500
