112
0 1
H          0.05100       21.81400       -7.36600
C          0.87200       22.51000       -7.53400
H          0.48100       23.44900       -7.92300
H          1.57800       22.07900       -8.24000
C          1.57100       22.76600       -6.22000
O          1.18400       22.21500       -5.19700
N          2.60400       23.60600       -6.24600
H          2.84100       24.05900       -7.11700
C          3.36400       24.01200       -5.06000
H          2.66900       24.07900       -4.22100
C          4.41600       22.94000       -4.72700
H          4.00100       21.95100       -4.92700
H          5.28300       23.06500       -5.37900
C          4.84800       22.96300       -3.27500
C          6.06800       23.55300       -2.89400
H          6.72700       23.97800       -3.64000
C          6.43200       23.60500       -1.53500
H          7.35900       24.07500       -1.24300
C          5.58100       23.05300       -0.55500
O          5.90400       23.12700        0.76100
H          6.77100       23.54900        0.90300
C          4.36300       22.45600       -0.93800
H          3.72000       22.03300       -0.18000
C          3.99700       22.41300       -2.29700
H          3.06100       21.95300       -2.59300
C          3.99100       25.40400       -5.25300
O          3.97700       25.94700       -6.35800
N          4.53200       26.00100       -4.18900
H          4.60100       25.48200       -3.32500
C          5.05200       27.36900       -4.19100
H          5.50200       27.56100       -5.16600
C          3.88200       28.34900       -4.00700
H          4.21800       29.33400       -4.32800
H          3.06100       28.06300       -4.66700
S          3.24100       28.52500       -2.31700
C          6.13800       27.60300       -3.12500
O          6.34000       26.78600       -2.23000
N          6.82100       28.75100       -3.21200
H          6.61000       29.36500       -3.98300
C          7.88500       29.17700       -2.27700
H          8.58900       28.35300       -2.16200
C          8.65500       30.37900       -2.87800
H          7.95300       31.19900       -3.03600
C          9.80000       30.89400       -1.99600
H         10.47600       30.07700       -1.74300
H         10.35700       31.67300       -2.51900
H          9.40500       31.33100       -1.07900
C          9.27200       30.00900       -4.23800
H          9.95800       29.17000       -4.12000
H          8.50000       29.74300       -4.95800
H          9.82200       30.86100       -4.63900
C          7.35500       29.49200       -0.86400
O          8.11000       29.47600        0.10200
N          6.06100       29.72700       -0.69000
H          5.70900       29.81700        0.25100
H          5.42400       29.64800       -1.46200
H         -0.79700       23.35600        5.64000
C         -1.36900       24.27700        5.73900
H         -0.95400       24.89000        6.53600
H         -2.40900       24.04000        5.96300
C         -1.31200       25.04200        4.43800
O         -2.34200       25.29700        3.82700
N         -0.10300       25.40500        4.01400
H          0.70500       25.12800        4.55200
C          0.15900       26.12200        2.76300
H         -0.56400       25.79200        2.01600
C         -0.03700       27.63000        2.98900
H         -1.00500       27.79600        3.46400
H          0.73100       27.99100        3.67500
C          0.00000       28.44600        1.71200
C         -1.11000       28.43500        0.84600
H         -1.99700       27.87200        1.11100
C         -1.06700       29.15400       -0.36300
H         -1.91100       29.15200       -1.03700
C          0.08800       29.88700       -0.70700
O          0.13300       30.56800       -1.88100
H          0.98900       30.97400       -2.01600
C          1.19800       29.90000        0.16400
H          2.09100       30.44500       -0.09700
C          1.15300       29.17800        1.37100
H          2.01700       29.16900        2.02300
C          1.56600       25.79600        2.23200
O          2.41900       25.32600        2.98500
N          1.81500       26.01700        0.93800
H          1.12000       26.49600        0.38400
C          3.10600       25.72400        0.31600
H          3.40200       24.72700        0.64900
C          2.95100       25.64300       -1.20900
H          3.94600       25.59400       -1.64800
H          2.45200       24.69900       -1.42700
S          1.98500       26.94500       -2.03600
C          4.22800       26.68100        0.76500
O          4.06300       27.90000        0.81500
N          5.38900       26.10300        1.08500
H          5.44100       25.09400        1.03600
C          6.57700       26.80600        1.59000
H          6.60100       27.78700        1.12700
C          6.45900       27.03400        3.11400
H          5.52700       27.57000        3.30000
C          6.41700       25.73400        3.92900
H          7.34300       25.17200        3.80600
H          6.28100       25.96800        4.98400
H          5.57700       25.11900        3.60500
C          7.59600       27.91100        3.65200
H          8.54800       27.38300        3.60000
H          7.65800       28.83200        3.07000
H          7.39400       28.16900        4.69100
C          7.86700       26.07700        1.19300
O          7.92600       24.85000        1.15900
N          8.92700       26.80500        0.87600
H          9.77800       26.33300        0.62000
H          8.85600       27.81500        0.86100
