93
0 1
H         -0.71800      -49.66600       16.67200
C         -0.42900      -50.48700       16.01900
H          0.08500      -50.09500       15.14200
H         -1.31100      -51.03800       15.69700
C          0.50200      -51.42100       16.75400
O          1.64200      -51.59000       16.33900
N          0.01700      -51.98200       17.86700
H         -0.93000      -51.73800       18.11000
C          0.63500      -53.06200       18.67000
H          0.15100      -53.02500       19.64500
C          0.27300      -54.43600       18.07300
H          0.60100      -55.21700       18.75900
H         -0.81400      -54.51000       18.01800
C          0.82500      -54.73400       16.71000
C          2.04200      -55.26400       16.46200
H          2.75500      -55.55400       17.22300
N          2.26000      -55.32400       15.10100
H          3.14500      -55.62400       14.69800
C          1.18300      -54.83700       14.39400
C          0.93000      -54.67600       13.02400
H          1.67600      -54.96200       12.29800
C         -0.30400      -54.14300       12.61500
H         -0.51700      -54.01500       11.56300
C         -1.26600      -53.78400       13.57700
H         -2.21800      -53.38400       13.25600
C         -0.99900      -53.94700       14.95100
H         -1.74700      -53.67600       15.68000
C          0.23600      -54.46800       15.39700
C          2.14300      -52.90700       18.98700
O          2.84700      -53.89200       19.21200
N          2.66800      -51.67700       18.97600
H          2.04100      -50.91900       18.76200
C          4.10300      -51.36700       19.04600
H          4.20600      -50.31100       18.79800
C          4.60300      -51.53200       20.48800
H          4.50200      -52.57600       20.77500
H          5.66400      -51.28100       20.52900
S          3.73000      -50.49600       21.69200
C          4.96300      -52.11400       17.99600
O          6.12500      -52.42500       18.25300
N          4.39700      -52.43000       16.82400
H          3.42100      -52.17600       16.68900
C          5.06200      -53.09600       15.69500
H          4.44300      -52.97500       14.80500
H          6.01800      -52.60300       15.51300
C          5.33700      -54.59500       15.88200
O          5.13700      -55.38200       14.96300
N          5.73000      -55.03800       17.06800
H          5.90600      -56.02100       17.18300
H          5.91100      -54.36700       17.80300
H          1.35300      -59.07500       23.26200
C          0.41600      -59.07100       22.70600
H         -0.38000      -59.49900       23.31100
H          0.53900      -59.65300       21.79400
C          0.06200      -57.65000       22.33600
O         -0.06900      -57.33500       21.15900
N         -0.11000      -56.79400       23.34300
H          0.00900      -57.13700       24.28100
C         -0.50600      -55.39600       23.15100
H         -1.22100      -55.34500       22.32700
C         -1.21700      -54.92500       24.42600
H         -0.53300      -54.95800       25.27500
H         -1.56500      -53.90000       24.29100
H         -2.07800      -55.56400       24.62800
C          0.66100      -54.45300       22.78900
O          0.47400      -53.52700       22.00200
N          1.85000      -54.66000       23.37000
H          1.95800      -55.47200       23.95900
C          3.04400      -53.84900       23.11100
H          3.10900      -53.66200       22.04100
C          2.88600      -52.48900       23.81300
H          1.94500      -52.03000       23.50800
H          2.83900      -52.66200       24.88900
S          4.21600      -51.29600       23.49900
C          4.33500      -54.56100       23.58600
O          4.67300      -54.46600       24.76700
N          5.07000      -55.27100       22.70600
C          6.41300      -55.74700       22.99100
H          6.35500      -56.68600       23.54300
H          6.98600      -55.01100       23.55700
C          7.04700      -55.97800       21.62300
H          7.85300      -56.71200       21.66800
H          7.40500      -55.03000       21.21700
C          5.86200      -56.48100       20.80000
H          5.73200      -57.55000       20.97900
H          6.00200      -56.28900       19.73600
C          4.66800      -55.69900       21.36400
H          4.51000      -54.81900       20.74500
C          3.40000      -56.56700       21.37800
O          3.13000      -57.27800       22.34100
N          2.60300      -56.51600       20.32500
H          1.72800      -57.02500       20.35800
H          2.77700      -55.83600       19.59800
