93
0 1
H          4.44600      -56.77600       27.09700
C          5.23400      -56.15800       26.67000
H          5.43800      -55.31400       27.32600
H          4.93300      -55.78800       25.69100
C          6.49400      -56.97500       26.51700
O          7.54300      -56.58900       27.02100
N          6.39500      -58.10500       25.81900
H          5.49900      -58.35300       25.42500
C          7.53500      -58.96300       25.48600
H          8.39800      -58.32000       25.31400
C          7.87300      -59.89000       26.66400
H          8.23600      -59.28800       27.49900
H          6.96000      -60.39400       26.98700
C          8.90200      -60.93000       26.34300
C          8.70100      -62.26600       26.36800
H          7.77600      -62.75100       26.65900
N          9.83700      -62.91300       25.92600
H          9.88800      -63.92200       25.79000
C         10.82700      -62.02200       25.57500
C         12.10900      -62.18100       25.03000
H         12.49000      -63.16800       24.81700
C         12.89000      -61.04000       24.78000
H         13.88600      -61.14100       24.37000
C         12.38200      -59.76300       25.07800
H         13.00000      -58.89200       24.90200
C         11.08800      -59.61400       25.61600
H         10.71700      -58.62600       25.85000
C         10.27500      -60.74000       25.87300
C          7.29600      -59.76100       24.19600
O          6.19500      -60.24000       23.93600
N          8.35200      -59.93300       23.39900
H          9.23000      -59.54700       23.71200
C          8.33200      -60.48500       22.04200
H          7.40800      -60.15900       21.56100
C          9.50600      -59.87000       21.25900
H         10.44700      -60.13000       21.74800
H          9.51900      -60.31300       20.26200
S          9.42000      -58.06600       21.04600
C          8.32300      -62.03000       21.98600
O          8.76600      -62.61900       21.00100
N          7.86200      -62.70100       23.04700
H          7.48100      -62.15000       23.80500
C          7.82900      -64.16400       23.17600
H          7.17700      -64.43400       24.00700
H          7.41300      -64.59300       22.26400
C          9.20500      -64.79400       23.42000
O          9.45900      -65.35000       24.48300
N         10.12900      -64.68100       22.47700
H          9.90900      -64.16500       21.63400
H         11.03800      -65.08100       22.63300
H         15.64900      -54.67900       26.12900
C         15.99700      -55.68600       25.90900
H         15.54700      -56.38600       26.61400
H         17.08100      -55.73500       25.99300
C         15.58200      -56.07000       24.50900
O         14.83800      -57.02500       24.33400
N         16.05200      -55.30600       23.52000
H         16.66100      -54.54800       23.78000
C         15.82500      -55.51900       22.07800
H         16.21500      -54.63500       21.57100
C         16.68300      -56.70500       21.60800
H         16.63400      -56.78700       20.52100
H         17.72200      -56.55900       21.90400
H         16.30800      -57.63100       22.04700
C         14.34500      -55.61500       21.62300
O         14.07000      -56.00300       20.49000
N         13.39200      -55.25100       22.48300
H         13.67700      -54.96100       23.40600
C         11.96000      -55.46600       22.29100
H         11.72200      -55.39400       21.23000
C         11.64300      -56.88500       22.78500
H         12.15000      -57.61300       22.14800
H         12.05300      -56.98600       23.79100
S          9.88400      -57.29500       22.87600
C         11.13900      -54.43100       23.09000
O         11.55000      -54.07900       24.20000
N          9.97200      -53.96800       22.59400
C          9.48400      -54.14100       21.22900
H          9.49900      -55.18500       20.91900
H         10.09400      -53.54300       20.55100
C          8.04700      -53.62000       21.21900
H          7.35900      -54.43100       21.46600
H          7.78600      -53.17400       20.25900
C          8.05800      -52.58500       22.34300
H          7.05700      -52.38900       22.73200
H          8.50300      -51.65900       21.97700
C          8.99000      -53.22000       23.38400
H          9.48600      -52.42900       23.94600
C          8.26000      -54.14000       24.38800
O          7.09400      -54.48700       24.22500
N          8.94900      -54.57800       25.43100
H          8.49400      -55.20000       26.08900
H          9.92400      -54.33300       25.52600
