93
0 1
H          1.37400      -49.72500       20.77200
C          1.58200      -50.03900       21.79200
H          1.18400      -49.30500       22.49100
H          2.65500      -50.13700       21.93400
C          0.90900      -51.36900       22.04200
O         -0.07300      -51.43500       22.77100
N          1.43700      -52.43500       21.44300
H          2.31400      -52.31900       20.95800
C          0.85400      -53.78400       21.48200
H         -0.15500      -53.73900       21.06900
C          1.68900      -54.72300       20.59900
H          1.31900      -55.74200       20.71700
H          1.52200      -54.44400       19.55800
C          3.17100      -54.71000       20.84000
C          3.84900      -55.54700       21.65800
H          3.40400      -56.34700       22.23900
N          5.19200      -55.22400       21.64400
H          5.90100      -55.73400       22.17200
C          5.44900      -54.15500       20.81400
C          6.62000      -53.46500       20.47000
H          7.56700      -53.75700       20.89600
C          6.54100      -52.37400       19.58900
H          7.43600      -51.83000       19.31800
C          5.29600      -51.99200       19.05800
H          5.24100      -51.16000       18.37000
C          4.12600      -52.69800       19.40100
H          3.18200      -52.41100       18.96300
C          4.17100      -53.79500       20.29100
C          0.71000      -54.36500       22.89600
O         -0.24600      -55.09500       23.14900
N          1.58600      -54.01100       23.84300
H          2.35900      -53.40400       23.58800
C          1.44000      -54.42800       25.24400
H          1.21900      -55.49700       25.25300
C          2.75900      -54.23100       25.99800
H          3.00900      -53.17200       26.01200
H          2.60300      -54.55600       27.02800
S          4.15900      -55.16700       25.32900
C          0.27100      -53.74100       25.98200
O         -0.01700      -54.10400       27.11900
N         -0.41100      -52.77100       25.35900
H         -0.11600      -52.48900       24.43100
C         -1.68200      -52.21800       25.84000
H         -1.65200      -52.11900       26.92600
H         -1.81500      -51.22600       25.40800
C         -2.91500      -53.05800       25.47300
O         -4.02200      -52.73200       25.88100
N         -2.77500      -54.13100       24.70200
H         -1.86600      -54.39600       24.35000
H         -3.59600      -54.66800       24.48000
H          8.81600      -55.81000       19.91800
C          8.64100      -56.68900       20.53500
H          9.45400      -57.40100       20.40700
H          7.70000      -57.15300       20.24200
C          8.55700      -56.27800       21.98600
O          7.54700      -56.52200       22.63600
N          9.61200      -55.64200       22.49200
H         10.39100      -55.44400       21.88800
C          9.65900      -55.13900       23.86600
H          9.46200      -55.97600       24.53700
C         11.07100      -54.61600       24.15600
H         11.80300      -55.41100       24.00300
H         11.30100      -53.77800       23.49500
H         11.13000      -54.27400       25.19000
C          8.59000      -54.05900       24.12700
O          8.34000      -53.19700       23.28400
N          7.96400      -54.10000       25.30600
H          8.20000      -54.82900       25.95900
C          6.87900      -53.18600       25.65900
H          6.13900      -53.27500       24.86900
C          6.22600      -53.64500       26.96600
H          6.97700      -53.64000       27.75800
H          5.44900      -52.93500       27.24500
S          5.47200      -55.29000       26.88600
C          7.33300      -51.71000       25.74100
O          8.46600      -51.44900       26.14500
N          6.45900      -50.73300       25.41300
C          6.81500      -49.32100       25.44400
H          7.74100      -49.13400       24.89800
H          6.92300      -48.99900       26.48100
C          5.65100      -48.57900       24.79000
H          5.79500      -48.54600       23.70900
H          5.53300      -47.57400       25.19500
C          4.46000      -49.47400       25.12800
H          3.63100      -49.32500       24.43400
H          4.13400      -49.27200       26.15000
C          5.04300      -50.89000       25.05000
H          4.53600      -51.51000       25.78700
C          4.79300      -51.50700       23.66300
O          3.70600      -52.01500       23.41700
N          5.76700      -51.51400       22.76500
H          6.68600      -51.17600       23.00200
H          5.61000      -51.97600       21.88000
