102
-1 1
H        -26.90500       15.99600        9.19700
C        -26.98900       15.73500       10.24900
H        -27.32300       16.59500       10.82600
H        -26.02300       15.39400       10.62000
C        -27.98900       14.61400       10.40400
O        -28.96300       14.75400       11.13600
N        -27.75000       13.51000        9.70200
H        -26.93400       13.51900        9.09400
C        -28.56500       12.28800        9.74600
H        -28.94600       12.19900       10.76300
C        -29.78200       12.41900        8.79500
H        -30.32700       13.32200        9.07700
C        -29.37000       12.57700        7.32000
H        -30.25200       12.76300        6.70800
H        -28.69200       13.42400        7.20800
H        -28.87500       11.67400        6.96300
C        -30.77000       11.23500        8.88900
H        -30.27000       10.30600        8.61400
H        -31.57900       11.40100        8.17600
C        -31.40600       11.07100       10.27500
H        -31.86800       12.00800       10.58600
H        -32.17000       10.29500       10.23100
H        -30.65400       10.77500       11.00600
C        -27.74000       11.01700        9.48500
O        -27.98900       10.00200       10.13200
N        -26.71400       11.05800        8.62600
H        -26.51200       11.93400        8.14800
C        -25.76100        9.94900        8.47400
H        -26.31100        9.03000        8.26800
C        -24.80000       10.22700        7.31200
H        -24.14900       11.05700        7.59000
H        -24.17200        9.34300        7.19600
S        -25.52300       10.61100        5.69500
C        -24.93100        9.73500        9.75400
O        -24.56200        8.61100       10.08500
N        -24.64100       10.82300       10.46900
H        -24.90200       11.72200       10.06800
C        -24.00300       10.85100       11.79500
H        -23.23100       10.08300       11.82600
C        -23.32900       12.21400       12.03400
H        -23.00800       12.27300       13.07400
C        -22.09200       12.40900       11.15600
H        -21.65700       13.38700       11.36000
H        -21.35800       11.63800       11.38600
H        -22.35800       12.34800       10.10100
O        -24.21100       13.28500       11.77800
H        -24.33400       13.34900       10.80400
C        -24.96300       10.53700       12.95300
O        -24.53700       10.44300       14.10000
N        -26.25300       10.33300       12.70700
H        -26.60400       10.35500       11.76100
H        -26.86000       10.12300       13.48000
H        -27.74100       12.30400        4.82000
C        -27.88400       13.10100        4.09400
H        -28.60100       13.82200        4.48100
H        -28.24400       12.68400        3.15600
C        -26.56800       13.79600        3.85300
O        -26.09500       13.85200        2.72700
N        -25.95600       14.31200        4.91200
H        -26.34500       14.12100        5.83500
C        -24.70200       15.07600        4.86700
H        -24.85100       15.91900        4.19100
C        -24.38600       15.65100        6.26800
H        -23.62200       16.41600        6.12100
H        -25.26800       16.16500        6.65400
C        -23.84500       14.68800        7.35000
H        -23.07000       14.04800        6.92800
H        -23.36100       15.30400        8.11200
C        -24.89900       13.81900        8.05600
O        -24.64000       13.33700        9.17900
O        -25.99400       13.57800        7.50700
C        -23.51600       14.27500        4.30400
O        -22.58400       14.84800        3.74200
N        -23.56400       12.94400        4.40300
H        -24.38000       12.53600        4.83700
C        -22.52300       12.04600        3.91100
H        -21.56500       12.46300        4.22300
C        -22.66100       10.68400        4.60100
H        -21.85300       10.05000        4.23100
H        -22.49500       10.82000        5.66900
S        -24.21400        9.76900        4.37500
C        -22.43500       11.93000        2.37500
O        -21.52800       11.25800        1.88700
N        -23.30000       12.60400        1.60000
H        -24.06000       13.10900        2.04300
C        -23.08000       12.79400        0.14800
H        -22.69900       11.85500       -0.25400
C        -24.38200       13.10600       -0.62000
H        -24.16400       13.01400       -1.68400
C        -25.48500       12.08500       -0.30900
H        -25.10600       11.07600       -0.46800
H        -25.82000       12.18500        0.72300
H        -26.33500       12.25100       -0.97100
C        -24.90800       14.53000       -0.39200
H        -25.87700       14.64900       -0.87600
H        -25.01300       14.73200        0.67100
H        -24.21900       15.25500       -0.82400
C        -22.00700       13.85200       -0.16400
O        -21.58100       13.98400       -1.30500
N        -21.55200       14.63000        0.81200
H        -20.84500       15.31000        0.59200
H        -21.91600       14.54000        1.75200
