102
-1 1
H        -30.73600       10.51500        5.62200
C        -29.83700       11.06900        5.36300
H        -29.75200       11.95300        5.99000
H        -29.86900       11.35900        4.31600
C        -28.63100       10.19000        5.59300
O        -28.77300        9.10500        6.14600
N        -27.45900       10.65400        5.16200
H        -27.45900       11.55800        4.69100
C        -26.17800        9.92600        5.25400
H        -26.32300        9.08100        5.92800
C        -25.77100        9.33600        3.87900
H        -24.91900        8.67700        4.05400
C        -26.89700        8.45800        3.29700
H        -27.72000        9.08100        2.94700
H        -26.51900        7.86200        2.46800
H        -27.26700        7.77900        4.06700
C        -25.30500       10.43200        2.89300
H        -24.43300       10.93000        3.31200
H        -26.09100       11.17400        2.77500
C        -24.90800        9.92000        1.50300
H        -24.15800        9.13400        1.59700
H        -25.78100        9.53500        0.97600
H        -24.48900       10.74400        0.92300
C        -25.03600       10.74700        5.88400
O        -23.95100       10.20300        6.07800
N        -25.25800       12.02600        6.20900
H        -26.17500       12.41600        6.00600
C        -24.24300       12.92900        6.77400
H        -23.35800       12.35400        7.05000
C        -23.82400       13.92700        5.68600
H        -24.71900       14.37800        5.26200
H        -23.22900       14.72000        6.14200
S        -22.84000       13.17300        4.36000
C        -24.70300       13.64100        8.06100
O        -23.91600       13.76600        8.99600
N        -25.97000       14.06000        8.14500
H        -26.55400       13.95200        7.31900
C        -26.60600       14.59600        9.37000
H        -26.11200       14.16000       10.23700
C        -26.47600       16.12600        9.48600
H        -27.07600       16.45200       10.33700
C        -25.05300       16.62700        9.71900
H        -24.64100       16.15000       10.60800
H        -24.41800       16.39200        8.86500
H        -25.06700       17.70600        9.86700
O        -26.96700       16.77100        8.33700
H        -26.23500       16.79500        7.70000
C        -28.09200       14.23400        9.50200
O        -28.65100       14.32500       10.59000
N        -28.76300       13.78200        8.45000
H        -28.31400       13.72200        7.54400
H        -29.73100       13.54000        8.57000
H        -24.58000       19.79200        6.86200
C        -25.41500       19.70900        6.16800
H        -25.16800       20.20700        5.23300
H        -26.30400       20.15800        6.60900
C        -25.68400       18.25000        5.89900
O        -25.02200       17.38400        6.46000
N        -26.66600       17.97100        5.05000
H        -27.15000       18.73100        4.60000
C        -27.01300       16.61100        4.62800
H        -26.44000       15.90400        5.22800
C        -28.50100       16.33700        4.91200
H        -28.65900       16.38700        5.99000
H        -29.11000       17.11200        4.44500
C        -28.98800       14.96800        4.41200
H        -29.94800       14.73800        4.87900
H        -29.15000       15.04400        3.33500
C        -27.98900       13.84200        4.69800
O        -27.57300       13.15000        3.74700
O        -27.55000       13.68600        5.85700
C        -26.62900       16.38100        3.15800
O        -27.00700       17.15400        2.27900
N        -25.88400       15.30800        2.88900
H        -25.72100       14.63400        3.62300
C        -25.31900       15.00700        1.57700
H        -24.87200       15.91900        1.18000
C        -24.20400       13.97500        1.75900
H        -24.63500       13.06400        2.17100
H        -23.79300       13.73600        0.77800
S        -22.83700       14.51400        2.82600
C        -26.35100       14.52900        0.53800
O        -26.11400       14.71200       -0.65400
N        -27.49500       13.96000        0.94800
H        -27.60300       13.74100        1.93900
C        -28.62800       13.70000        0.03000
H        -28.20200       13.43200       -0.93700
C        -29.49600       12.49100        0.45100
H        -30.13900       12.24300       -0.39500
C        -28.64600       11.24900        0.74100
H        -28.07300       11.39400        1.65600
H        -29.29300       10.38100        0.86600
H        -27.96300       11.06600       -0.08900
C        -30.41300       12.74900        1.65200
H        -31.01500       11.86300        1.84800
H        -29.81800       12.97300        2.53100
H        -31.08400       13.58200        1.44600
C        -29.49200       14.94400       -0.24600
O        -30.46800       14.87400       -0.98400
N        -29.17800       16.10200        0.32500
H        -29.74800       16.90500        0.12300
H        -28.36300       16.17900        0.91900
