109
1 1
H         13.48200       -7.88100       10.04700
C         13.89100       -7.36600       10.91500
H         13.79300       -8.00200       11.79500
H         13.35100       -6.43500       11.07900
C         15.35300       -7.06600       10.68100
O         16.20500       -7.52400       11.43700
N         15.64800       -6.29200        9.63400
H         14.88500       -5.92700        9.07900
C         17.00800       -5.86900        9.26100
H         17.60700       -5.79600       10.16600
C         17.65400       -6.88500        8.30300
H         16.97300       -7.10400        7.47900
H         18.53100       -6.39900        7.88100
C         18.10200       -8.20000        8.96500
H         18.59600       -7.97900        9.90900
H         17.22600       -8.81700        9.17100
C         19.07400       -8.99000        8.07200
H         19.35500       -9.91700        8.57400
H         18.55900       -9.25300        7.14600
N         20.27300       -8.19500        7.73900
H         20.19800       -7.63500        6.89500
C         21.35500       -8.01100        8.47200
N         22.20100       -7.07200        8.18700
H         21.95900       -6.30500        7.56800
H         23.09300       -7.03100        8.66700
N         21.62500       -8.74300        9.51400
H         21.03200       -9.51600        9.73500
H         22.37700       -8.45800       10.13200
C         17.03700       -4.49300        8.59600
O         16.07000       -4.10300        7.95200
N         18.18600       -3.81700        8.66900
H         18.93100       -4.21200        9.22900
C         18.46700       -2.61700        7.86600
H         17.59100       -1.96500        7.87500
C         19.64300       -1.85700        8.48900
H         20.51600       -2.50500        8.48600
H         19.87600       -1.00000        7.85400
S         19.37900       -1.23500       10.16900
C         18.79700       -2.93000        6.39100
O         18.74900       -2.03800        5.55100
N         19.17200       -4.17400        6.07100
H         19.23400       -4.85100        6.81400
C         19.52600       -4.63300        4.72100
H         19.02700       -3.99000        3.99300
C         21.04900       -4.57900        4.45400
H         21.51700       -5.49200        4.82700
H         21.18300       -4.58400        3.37200
C         21.82700       -3.37400        5.01600
H         22.75400       -3.27900        4.45100
H         21.26000       -2.45700        4.86300
C         22.21000       -3.51100        6.49200
O         21.91100       -4.48900        7.16800
N         22.89100       -2.53400        7.04600
H         23.13900       -1.71600        6.52000
H         23.19300       -2.65100        8.01100
C         19.03900       -6.07300        4.51500
O         19.21200       -6.91800        5.39300
N         18.47700       -6.39100        3.35700
H         18.34500       -5.69000        2.64600
H         18.16800       -7.33900        3.21600
H         24.27000       -8.27100       13.72000
C         23.28000       -8.04700       14.11600
H         23.35700       -7.26100       14.86500
H         22.86600       -8.94400       14.57400
C         22.37900       -7.59900       12.99100
O         22.78600       -7.59500       11.83400
N         21.15400       -7.19700       13.32600
H         20.90400       -7.18900       14.30400
C         20.10200       -6.82800       12.36500
H         19.88200       -7.69500       11.74300
C         18.83500       -6.47600       13.16000
H         18.05100       -6.15600       12.47100
H         18.47400       -7.35900       13.69100
S         19.17000       -5.14100       14.35000
H         17.92200       -5.01900       14.82500
C         20.48600       -5.67900       11.40900
O         20.00700       -5.63900       10.27600
N         21.35900       -4.76500       11.83900
H         21.65500       -4.82000       12.80100
C         21.83100       -3.64100       11.02600
H         21.20700       -3.57500       10.13900
C         21.62600       -2.35200       11.83300
H         20.78500       -2.48300       12.51600
H         22.51700       -2.16100       12.43400
S         21.26900       -0.87800       10.84500
C         23.27900       -3.80400       10.51800
O         23.75700       -2.98500        9.73600
N         23.98900       -4.84900       10.96000
H         23.50800       -5.56000       11.49400
C         25.40500       -5.08700       10.65100
H         25.90800       -4.12700       10.52200
C         26.09400       -5.83000       11.82600
H         25.46200       -6.66700       12.12800
C         27.46100       -6.41500       11.42200
H         27.93300       -6.89300       12.28200
H         27.34200       -7.18100       10.65500
H         28.11900       -5.62600       11.05400
C         26.34200       -4.92800       13.06100
H         26.90500       -5.50400       13.79700
H         26.95800       -4.07700       12.76900
C         25.09200       -4.40300       13.78000
H         25.38400       -3.98100       14.74200
H         24.62000       -3.61400       13.19500
H         24.38600       -5.21500       13.94900
C         25.50800       -5.85000        9.32400
O         24.79700       -6.82800        9.10600
N         26.39300       -5.43700        8.42700
H         26.96500       -4.63000        8.61300
H         26.47200       -5.94500        7.56100
