109
1 1
H         18.71900       -4.55900       13.24000
C         18.53900       -5.61000       13.02900
H         17.49300       -5.84300       13.21300
H         19.17300       -6.21900       13.67200
C         18.86700       -5.91800       11.58800
O         19.16500       -7.07000       11.26700
N         18.77500       -4.90900       10.71000
H         18.58600       -3.98600       11.08900
C         18.95400       -5.06200        9.25200
H         19.53700       -5.95200        9.11900
C         17.59700       -5.24800        8.53100
H         16.92000       -4.46200        8.87000
H         17.73300       -5.10700        7.45800
C         16.90000       -6.61300        8.72500
H         16.78700       -6.82700        9.78800
H         15.89600       -6.52300        8.30800
C         17.57800       -7.80900        8.02200
H         16.87300       -8.64300        8.01100
H         17.79100       -7.53800        6.98700
N         18.79700       -8.24400        8.72900
H         18.71600       -8.31200        9.73700
C         20.04400       -8.15200        8.30600
N         20.37800       -7.97400        7.06300
H         19.67100       -7.93800        6.35600
H         21.33500       -7.70900        6.86700
N         21.00400       -8.11400        9.17500
H         20.75500       -7.95000       10.14400
H         21.91100       -7.80700        8.85200
C         19.86500       -4.06200        8.54100
O         20.14200       -4.27100        7.36400
N         20.42400       -3.06600        9.22500
H         20.16200       -2.94300       10.19400
C         21.42300       -2.15400        8.64400
H         21.08400       -1.89600        7.63900
C         21.43100       -0.84600        9.44800
H         21.44900       -1.07200       10.51200
H         22.33000       -0.27400        9.21000
S         20.00200        0.19900        9.05900
C         22.83200       -2.76800        8.43000
O         23.79900       -2.03500        8.24600
N         22.97000       -4.10000        8.43700
H         22.15400       -4.65800        8.64400
C         24.21200       -4.82700        8.15900
H         24.84100       -4.17800        7.54700
C         24.98500       -5.09900        9.46700
H         26.00700       -5.35500        9.18400
H         25.04100       -4.17900       10.04900
C         24.47300       -6.23700       10.37400
H         24.34300       -7.15400        9.80100
H         25.25000       -6.43900       11.11100
C         23.17400       -5.93100       11.11900
O         22.11200       -5.74200       10.54300
N         23.20700       -5.92000       12.43000
H         22.36100       -5.65600       12.93100
H         24.05800       -6.09300       12.93100
C         23.96900       -6.11300        7.34400
O         22.97200       -6.81800        7.51200
N         24.90500       -6.47100        6.47500
H         24.77300       -7.31400        5.93900
H         25.72100       -5.89500        6.34100
H         22.47100        4.23200       14.85400
C         22.12200        3.59300       14.04400
H         22.97800        3.24100       13.46800
H         21.45300        4.15400       13.39400
C         21.39300        2.40500       14.62000
O         21.78400        1.26600       14.39500
N         20.29700        2.65200       15.33700
H         20.00400        3.61100       15.45500
C         19.51800        1.61300       16.02700
H         20.17400        1.11200       16.74200
C         18.39100        2.29900       16.81300
H         17.81800        1.55000       17.36500
H         18.82700        2.99300       17.53400
S         17.28600        3.21500       15.69700
H         16.50000        2.18900       15.34500
C         18.96900        0.51000       15.09700
O         18.69000       -0.59400       15.55700
N         18.87300        0.76400       13.78800
H         19.14100        1.68300       13.47200
C         18.50700       -0.22600       12.77100
H         17.57900       -0.70500       13.08600
C         18.23000        0.53100       11.46900
H         17.80800       -0.16800       10.74500
H         17.47200        1.29100       11.66200
S         19.66500        1.33700       10.71000
C         19.54600       -1.35300       12.57200
O         19.26500       -2.32600       11.86800
N         20.72700       -1.26100       13.19700
H         20.94300       -0.39500       13.68200
C         21.67900       -2.37400       13.36600
H         21.83300       -2.86200       12.40400
C         23.03400       -1.80300       13.86300
H         22.82300       -1.16800       14.72500
C         24.02000       -2.87800       14.35400
H         24.18300       -3.62700       13.58100
H         24.97400       -2.41500       14.61000
H         23.63600       -3.36700       15.25000
C         23.71700       -0.91300       12.79500
H         23.00800       -0.16800       12.43400
H         24.53300       -0.36800       13.27000
C         24.29000       -1.65800       11.58100
H         25.14000       -2.27200       11.87800
H         23.53000       -2.29100       11.12700
H         24.63200       -0.93200       10.84300
C         21.12300       -3.45100       14.31800
O         21.42300       -4.63000       14.16200
N         20.26900       -3.10800       15.27600
H         19.91100       -3.82900       15.88000
H         19.96200       -2.15000       15.37700
