96
-2 1
H        -21.36000        9.67200       -3.68400
C        -22.33500       10.01900       -3.34800
H        -23.11900        9.35400       -3.70400
H        -22.52000       11.02300       -3.72700
C        -22.35700       10.06000       -1.83900
O        -21.32300        9.88400       -1.20900
N        -23.53700       10.25700       -1.25500
H        -24.29000       10.55800       -1.87800
C        -23.80700       10.46300        0.18700
H        -24.88900       10.55200        0.28100
C        -23.39600        9.23400        1.02100
H        -22.31400        9.11400        0.98700
C        -23.83000        9.28900        2.48500
H        -23.28200       10.07400        3.00600
H        -24.89900        9.48900        2.54700
H        -23.61100        8.33500        2.96400
O        -23.99900        8.08500        0.47100
H        -23.79700        8.11800       -0.46800
C        -23.24900       11.77100        0.77200
O        -23.85000       12.32000        1.69400
N        -22.16200       12.32500        0.22600
H        -21.69500       11.81300       -0.51100
C        -21.61300       13.62900        0.62400
H        -21.38900       13.60400        1.69100
C        -20.30600       13.86200       -0.14400
H        -20.52400       13.82500       -1.21300
H        -19.93800       14.86200        0.08800
S        -18.98200       12.67300        0.21200
C        -22.58600       14.80400        0.38700
O        -22.50700       15.82100        1.07300
N        -23.51600       14.66900       -0.56100
H        -23.46400       13.84500       -1.15900
C        -24.62500       15.59700       -0.81800
H        -24.22700       16.61000       -0.77600
C        -25.16900       15.37000       -2.24600
H        -25.84900       16.19300       -2.46800
H        -24.34700       15.45000       -2.95900
C        -25.94400       14.05700       -2.50500
H        -26.73200       13.95400       -1.75700
H        -26.43500       14.15100       -3.47600
C        -25.08800       12.77700       -2.53000
O        -25.66600       11.67100       -2.44100
O        -23.84300       12.87100       -2.61100
C        -25.75700       15.53900        0.23100
O        -26.67200       16.35800        0.20700
N        -25.73800       14.59800        1.16800
H        -26.48000       14.57600        1.84400
H        -24.97800       13.93000        1.20300
H        -13.34200        8.81500        1.18000
C        -12.74300        9.65700        1.52100
H        -12.46600       10.28700        0.67600
H        -11.84100        9.30600        2.01700
C        -13.55000       10.48000        2.49500
O        -14.69600       10.15600        2.78000
N        -12.96400       11.56500        2.98700
H        -12.04700       11.80500        2.61100
C        -13.55700       12.52000        3.94600
H        -14.15100       11.94700        4.65600
C        -12.46100       13.27800        4.73500
H        -12.19400       14.19000        4.20100
C        -12.91200       13.64000        6.15200
H        -13.14700       12.73200        6.70700
H        -12.10900       14.17400        6.65800
H        -13.79200       14.28100        6.11400
O        -11.28200       12.51800        4.88700
H        -10.85000       12.54700        4.00200
C        -14.51100       13.52100        3.26200
O        -14.67100       14.65000        3.72200
N        -15.09700       13.14600        2.11800
H        -14.98500       12.17800        1.85100
C        -15.76000       14.04600        1.16100
H        -15.98600       13.44500        0.28100
C        -17.11000       14.53100        1.71800
H        -16.92700       15.08400        2.63900
H        -17.55700       15.22400        1.00500
S        -18.31700       13.21900        2.06000
C        -14.85400       15.19000        0.64000
O        -15.34600       16.23300        0.21300
N        -13.53100       14.99800        0.65900
H        -13.18700       14.08400        0.94100
C        -12.52100       15.94100        0.15500
H        -12.93900       16.94800        0.19800
C        -11.28100       15.91400        1.07600
H        -10.71200       16.82200        0.87200
H        -11.61200       15.97800        2.11400
C        -10.29700       14.73100        0.94400
H         -9.92800       14.67600       -0.08200
H         -9.43200       14.94700        1.57600
C        -10.88600       13.37200        1.35100
O        -10.47500       12.82400        2.39800
O        -11.79300       12.87100        0.64900
C        -12.13800       15.68700       -1.31500
O        -11.75700       16.60300       -2.03700
N        -12.23500       14.45100       -1.79200
H        -11.98700       14.28000       -2.75000
H        -12.43600       13.69700       -1.14500
