96
-2 1
H        -11.76500       18.17700        1.47100
C        -12.75600       18.37400        1.87400
H        -13.49000       18.40800        1.06800
H        -12.76900       19.32200        2.40900
C        -13.13600       17.27000        2.83000
O        -12.33800       16.37900        3.09600
N        -14.36800       17.31400        3.32000
H        -14.97900       18.05300        2.97000
C        -14.98600       16.32000        4.22000
H        -14.20400       15.93500        4.87300
C        -16.08300       16.95900        5.10700
H        -17.05100       16.85500        4.61400
C        -16.15700       16.31500        6.49200
H        -15.20500       16.43900        7.00700
H        -16.94600       16.79600        7.07000
H        -16.38500       15.25400        6.40200
O        -15.86700       18.33500        5.33300
H        -16.09100       18.76900        4.47700
C        -15.56700       15.11300        3.45400
O        -16.41500       14.39300        3.97800
N        -15.15000       14.90200        2.20000
H        -14.44800       15.53700        1.84900
C        -15.73200       13.94300        1.25100
H        -15.22800       14.11200        0.30000
C        -15.40700       12.49600        1.66200
H        -15.81700       12.31500        2.65600
H        -15.90600       11.81300        0.97500
S        -13.64000       12.08500        1.67900
C        -17.22900       14.19600        0.95600
O        -18.02500       13.26500        0.85600
N        -17.60900       15.46400        0.77600
H        -16.89500       16.18800        0.86400
C        -18.98700       15.93900        0.55500
H        -19.60900       15.57000        1.37200
C        -19.01800       17.48400        0.58100
H        -18.46200       17.87900       -0.27000
H        -20.05700       17.79000        0.45300
C        -18.51900       18.14600        1.88100
H        -19.01500       19.11600        1.96400
H        -18.84000       17.54400        2.73300
C        -17.00000       18.38600        1.95800
O        -16.56500       19.08200        2.90300
O        -16.23300       17.82100        1.14600
C        -19.64600       15.44900       -0.75500
O        -20.83000       15.67400       -0.98700
N        -18.91800       14.79200       -1.64900
H        -19.36700       14.46200       -2.48500
H        -17.96200       14.56800       -1.43000
H         -6.87400        6.89700       -3.94800
C         -6.76300        6.50400       -2.93900
H         -5.74300        6.16700       -2.77100
H         -7.46200        5.68000       -2.80900
C         -7.10500        7.59400       -1.95300
O         -6.25500        7.97800       -1.15400
N         -8.33800        8.09300       -2.01500
H         -8.94300        7.74100       -2.75800
C         -8.85100        9.17700       -1.15600
H         -8.15300        9.29900       -0.32900
C         -8.86500       10.53900       -1.88600
H         -9.11800       11.30000       -1.14700
C         -7.51200       10.92500       -2.48300
H         -6.74100       10.86400       -1.71600
H         -7.26000       10.25300       -3.30400
H         -7.56300       11.94500       -2.86200
O         -9.81500       10.63300       -2.92600
H        -10.07100        9.72700       -3.22900
C        -10.18100        8.80300       -0.47400
O        -10.20500        7.89500        0.35700
N        -11.29100        9.47500       -0.79600
H        -11.21400       10.15900       -1.53900
C        -12.63100        9.19900       -0.26500
H        -12.59100        9.25400        0.82300
C        -13.58500       10.28700       -0.77400
H        -13.61200       10.23400       -1.86300
H        -14.58800       10.07400       -0.40400
S        -13.14700       11.98300       -0.29700
C        -13.17400        7.80000       -0.63100
O        -14.16500        7.35800       -0.05600
N        -12.53400        7.09400       -1.56800
H        -11.78400        7.56600       -2.06900
C        -12.82200        5.69400       -1.91400
H        -13.88800        5.60800       -2.12600
C        -12.03900        5.25700       -3.17300
H        -11.03500        4.94400       -2.88000
H        -12.54200        4.37900       -3.58000
C        -11.91400        6.29800       -4.30000
H        -11.77900        5.76800       -5.24600
H        -12.83700        6.87900       -4.37700
C        -10.70300        7.21000       -4.07000
O        -10.88000        8.31800       -3.51500
O         -9.56200        6.78100       -4.33200
C        -12.50400        4.70600       -0.77100
O        -12.96600        3.56900       -0.78000
N        -11.70700        5.09600        0.21900
H        -11.32000        6.03100        0.21600
H        -11.51200        4.45100        0.96400
