96
-2 1
H        -13.51200        5.58100       -2.22100
C        -13.66500        6.46500       -1.60500
H        -13.77300        7.33700       -2.24900
H        -12.82700        6.60700       -0.92700
C        -14.93300        6.29700       -0.80300
O        -14.89700        6.35400        0.42000
N        -16.04900        6.07000       -1.49000
H        -15.96100        6.12700       -2.50700
C        -17.44000        6.07600       -0.98200
H        -18.04800        5.82500       -1.85000
C        -17.73700        4.97200        0.05100
H        -18.81700        4.92700        0.19500
C        -17.27400        3.58600       -0.39900
H        -17.70400        3.35500       -1.37400
H        -16.18600        3.55300       -0.46500
H        -17.60900        2.84400        0.32500
O        -17.14700        5.23200        1.30000
H        -16.26800        5.62000        1.12300
C        -17.98400        7.44400       -0.54300
O        -19.17800        7.55700       -0.26600
N        -17.17800        8.51000       -0.61500
H        -16.23700        8.35500       -0.95200
C        -17.65300        9.90100       -0.57300
H        -18.21300       10.06500        0.34800
C        -16.43400       10.83100       -0.59300
H        -15.84000       10.59600       -1.47900
H        -16.78200       11.86000       -0.69000
S        -15.35100       10.73600        0.86000
C        -18.58200       10.23100       -1.76200
O        -19.39700       11.14600       -1.69600
N        -18.47300        9.45000       -2.83900
H        -17.66600        8.83300       -2.83800
C        -19.31800        9.45100       -4.03900
H        -19.28600       10.44600       -4.48200
C        -18.76700        8.43100       -5.06400
H        -19.03600        7.42300       -4.74300
H        -19.27400        8.61500       -6.01200
C        -17.24900        8.47200       -5.32800
H        -17.05800        8.01100       -6.30000
H        -16.91800        9.51200       -5.38800
C        -16.45500        7.70700       -4.25800
O        -16.43600        6.45800       -4.28700
O        -15.94100        8.36200       -3.32300
C        -20.80000        9.11800       -3.76000
O        -21.65500        9.31200       -4.62000
N        -21.14600        8.59900       -2.58600
H        -22.11600        8.40500       -2.41200
H        -20.44400        8.45200       -1.87300
H        -14.22800       16.06900        8.19700
C        -14.79100       15.18900        8.50400
H        -15.80100       15.25800        8.10300
H        -14.81700       15.11400        9.58800
C        -14.12000       13.96500        7.92900
O        -13.60800       13.14000        8.68000
N        -14.14700       13.83400        6.60700
H        -14.55100       14.62700        6.10600
C        -13.45500       12.80100        5.80500
H        -12.42800       12.70200        6.15400
C        -14.15700       11.43300        5.96700
H        -15.23500       11.57200        5.87300
C        -13.71800       10.34400        4.98600
H        -12.63300       10.24100        5.00600
H        -14.17600        9.39500        5.26600
H        -14.04100       10.59100        3.97500
O        -13.86800       10.90400        7.24100
H        -13.82900       11.65700        7.86000
C        -13.39100       13.16800        4.31400
O        -12.39300       12.87200        3.65900
N        -14.43300       13.79900        3.76200
H        -15.16900       14.14500        4.37400
C        -14.63300       13.95800        2.31400
H        -13.92900       13.32000        1.78000
C        -16.05200       13.47500        1.97700
H        -16.76000       14.07400        2.55200
H        -16.24400       13.65800        0.92000
S        -16.38700       11.72300        2.31200
C        -14.41600       15.39300        1.78700
O        -14.60900       15.65000        0.60000
N        -14.07200       16.35200        2.64700
H        -13.88300       16.08100        3.61100
C        -14.25400       17.79200        2.38700
H        -15.10300       17.90200        1.71100
C        -14.61700       18.54000        3.69100
H        -13.72300       18.64500        4.30700
H        -14.94000       19.54600        3.42000
C        -15.74700       17.89700        4.52800
H        -16.04000       18.60300        5.30900
H        -16.61300       17.73500        3.88300
C        -15.32900       16.57600        5.19500
O        -14.13600       16.43100        5.53600
O        -16.13300       15.62200        5.25900
C        -13.05900       18.45600        1.67400
O        -13.05700       19.65600        1.41600
N        -12.01700       17.70600        1.33700
H        -11.24400       18.13800        0.86300
H        -12.04300       16.71800        1.53500
