98
0 1
H         67.20900      -91.76300       93.82600
C         66.84300      -90.91600       93.24900
H         66.85800      -91.15500       92.18700
H         67.46800      -90.04700       93.44200
C         65.42600      -90.60400       93.66600
O         64.53000      -90.55900       92.83000
N         65.21500      -90.38100       94.96200
H         66.01600      -90.42500       95.58600
C         63.90900      -89.99600       95.51100
H         63.14700      -90.62300       95.04800
C         63.83800      -90.23800       97.04000
H         64.63600      -89.68400       97.53000
C         62.49800      -89.72300       97.60500
H         61.66400      -90.23200       97.12000
H         62.45200      -89.90700       98.67900
H         62.40400      -88.64800       97.45800
C         63.96200      -91.73500       97.42100
H         63.41200      -92.34600       96.70500
H         63.50700      -91.89100       98.40000
C         65.40200      -92.25500       97.53600
H         65.38600      -93.25800       97.96400
H         65.87400      -92.31100       96.55800
H         65.98400      -91.60300       98.18800
C         63.62000      -88.54200       95.10600
O         64.08600      -87.59300       95.73700
N         62.86900      -88.36100       94.02100
H         62.59300      -89.18500       93.50200
C         62.66400      -87.06800       93.37200
H         63.05400      -86.29000       94.01600
C         63.51600      -87.03700       92.10000
H         63.32500      -87.94600       91.52500
H         63.22800      -86.18300       91.48600
S         65.29400      -86.92700       92.44700
C         61.16600      -86.80600       93.11200
O         60.50900      -87.66200       92.52300
N         60.60100      -85.65500       93.54300
C         59.19300      -85.34400       93.33200
H         58.55700      -86.20100       93.56200
H         59.04400      -85.03800       92.29600
C         58.87500      -84.18100       94.26800
H         58.60700      -84.56200       95.25500
H         58.08200      -83.54700       93.87100
C         60.21100      -83.44300       94.34200
H         60.29200      -82.84200       95.24900
H         60.32100      -82.80800       93.46100
C         61.25100      -84.56800       94.29100
H         62.11600      -84.20400       93.73900
C         61.70900      -84.96400       95.71000
O         62.65100      -84.38800       96.23600
N         61.11000      -85.97400       96.32900
H         61.45600      -86.24500       97.23600
H         60.34600      -86.46000       95.89000
H         70.67800      -89.32200       95.83100
C         70.10500      -89.83000       96.60400
H         70.51500      -89.59400       97.58500
H         70.14500      -90.90700       96.44200
C         68.66700      -89.37600       96.54000
O         67.77300      -90.18700       96.32800
N         68.44300      -88.07600       96.71800
H         69.22800      -87.45800       96.86200
C         67.11800      -87.45300       96.68200
H         66.50600      -88.00500       95.97000
C         66.44900      -87.55100       98.06800
H         65.39100      -87.31600       97.95200
H         66.50400      -88.58400       98.41400
C         67.01300      -86.65500       99.15800
C         66.27600      -85.54000       99.60600
H         65.31400      -85.31300       99.16800
C         66.77900      -84.72900      100.63900
H         66.20600      -83.88200      100.99400
C         68.02400      -85.02100      101.22000
H         68.41000      -84.39400      102.01300
C         68.76000      -86.13500      100.78100
H         69.71200      -86.36600      101.23700
C         68.25100      -86.95500       99.75900
H         68.81100      -87.82200       99.44100
C         67.20800      -86.00300       96.18600
O         68.21000      -85.32800       96.42000
N         66.16700      -85.50400       95.51600
H         65.35100      -86.09700       95.40000
C         66.13300      -84.15000       94.93900
H         67.12800      -83.92600       94.55200
C         65.17000      -84.11200       93.74200
H         64.20700      -84.50200       94.05300
H         65.02200      -83.06600       93.47000
S         65.71900      -84.94600       92.22600
C         65.83000      -83.04200       95.97700
O         65.07000      -82.11400       95.70700
N         66.40000      -83.13900       97.18200
H         67.05500      -83.89900       97.32400
C         66.24200      -82.16000       98.26800
H         67.03200      -82.31700       99.00100
H         66.36300      -81.15900       97.85300
C         64.89500      -82.19000       99.00800
O         64.81800      -81.74700      100.14700
N         63.83400      -82.75100       98.44400
H         63.87700      -83.08800       97.49100
H         62.97000      -82.76300       98.95700
