98
0 1
H         69.54700      -89.27100       91.61300
C         68.55000      -88.96100       91.30600
H         67.81400      -89.67300       91.68000
H         68.49400      -88.91700       90.21900
C         68.25100      -87.59700       91.87900
O         67.30000      -87.44300       92.63500
N         69.05100      -86.60300       91.50000
H         69.78500      -86.80900       90.83800
C         68.93300      -85.20100       91.93300
H         67.98900      -85.06500       92.45800
C         70.07900      -84.85600       92.92100
H         70.99500      -85.31900       92.54800
C         70.36000      -83.34500       93.04800
H         70.62000      -82.92100       92.07800
H         69.49200      -82.82600       93.44900
H         71.20900      -83.17300       93.70800
C         69.74900      -85.47100       94.30400
H         69.50800      -86.52600       94.17700
H         68.86900      -84.97700       94.72000
C         70.88700      -85.39400       95.32900
H         70.60800      -85.96300       96.21700
H         71.79800      -85.82000       94.90700
H         71.06700      -84.36100       95.62600
C         68.89100      -84.30000       90.69400
O         69.76500      -84.39000       89.83400
N         67.86000      -83.45900       90.58500
H         67.21600      -83.38900       91.37000
C         67.68500      -82.47200       89.51500
H         68.63500      -81.95300       89.39100
C         67.33000      -83.15900       88.17700
H         67.59000      -82.47600       87.37000
H         67.95300      -84.04400       88.04500
S         65.59100      -83.62100       87.92800
C         66.60100      -81.44000       89.90500
O         65.73300      -81.76200       90.72000
N         66.59700      -80.22100       89.32900
C         67.61800      -79.67900       88.44000
H         67.80200      -80.33300       87.58800
H         68.54000      -79.52500       89.00200
C         67.08500      -78.33200       87.94900
H         66.51100      -78.47600       87.03300
H         67.88900      -77.61400       87.79000
C         66.15500      -77.90100       89.08200
H         65.40700      -77.18000       88.74800
H         66.74700      -77.47500       89.89300
C         65.54000      -79.22800       89.54600
H         65.31000      -79.15700       90.61000
C         64.24100      -79.60800       88.80100
O         63.88300      -79.01900       87.78800
N         63.53200      -80.61800       89.28300
H         63.87600      -81.12300       90.08800
H         62.69500      -80.91700       88.80100
H         66.90600      -81.75600       96.20000
C         66.46700      -81.59000       95.21800
H         67.08100      -80.89100       94.65200
H         65.46000      -81.18800       95.32100
C         66.40100      -82.89900       94.47000
O         66.99000      -83.02900       93.40200
N         65.69500      -83.87700       95.03500
H         65.22500      -83.69800       95.90500
C         65.46300      -85.16500       94.37500
H         66.43600      -85.57900       94.11000
C         64.78900      -86.15200       95.33500
H         63.81600      -85.75500       95.63000
H         64.61700      -87.09100       94.80600
C         65.62200      -86.44600       96.56900
C         65.21300      -85.98500       97.83500
H         64.28600      -85.44000       97.94200
C         66.00900      -86.23700       98.96800
H         65.69300      -85.88600       99.94000
C         67.21600      -86.94700       98.83700
H         67.82700      -87.14000       99.70700
C         67.62600      -87.40900       97.57300
H         68.55200      -87.95600       97.47200
C         66.82900      -87.16000       96.44200
H         67.14700      -87.51700       95.47100
C         64.67000      -84.98600       93.07300
O         63.72800      -84.19800       93.00500
N         65.09700      -85.68900       92.02600
H         65.82100      -86.38100       92.18000
C         64.72800      -85.36600       90.65300
H         64.87700      -84.29300       90.52900
C         65.69500      -86.08800       89.70900
H         66.71300      -85.86400       90.01600
H         65.54100      -87.16300       89.81300
S         65.54300      -85.65900       87.95800
C         63.25800      -85.67200       90.32300
O         62.77800      -86.78500       90.53600
N         62.55800      -84.69000       89.75100
H         63.00900      -83.79700       89.60300
C         61.15400      -84.79300       89.35800
H         61.04300      -85.59400       88.62600
H         60.55400      -85.04300       90.23400
C         60.62000      -83.49300       88.75000
O         61.33200      -82.50300       88.62200
N         59.35200      -83.47000       88.36200
H         58.99600      -82.61800       87.96100
H         58.77200      -84.28500       88.47100
