93
-2 1
H         17.86100      -66.07400        7.76600
C         18.69000      -65.55200        8.23900
H         19.60300      -65.70400        7.66600
H         18.82700      -65.91200        9.25700
C         18.38100      -64.07500        8.28100
O         18.31800      -63.49500        9.35700
N         18.18100      -63.49200        7.10500
H         18.19300      -64.06400        6.27600
C         17.86100      -62.07500        6.88700
H         17.30900      -61.70400        7.75100
C         19.18100      -61.28100        6.79200
H         19.84500      -61.61200        7.59300
H         19.66900      -61.51400        5.84800
C         19.02500      -59.76200        6.94100
O         20.03400      -59.03800        6.80800
O         17.91100      -59.27600        7.24600
C         16.94200      -61.92300        5.64800
O         16.48500      -62.92400        5.08600
N         16.60500      -60.69400        5.25300
H         17.04100      -59.92200        5.75100
C         15.54300      -60.36500        4.29900
H         14.61400      -60.78200        4.68900
C         15.39900      -58.84000        4.27500
H         14.51100      -58.58300        3.69800
H         15.24700      -58.49800        5.29800
S         16.80400      -57.93100        3.57800
C         15.70700      -60.93200        2.87400
O         14.70600      -61.07100        2.17000
N         16.91700      -61.29300        2.44200
H         17.72300      -61.08600        3.03500
C         17.16000      -62.01500        1.18300
H         16.55800      -61.54700        0.40500
C         18.63700      -61.87400        0.76900
H         18.75500      -62.36700       -0.19700
H         18.86900      -60.81900        0.61100
C         19.66400      -62.48700        1.74000
H         19.21600      -63.30200        2.31100
H         20.47300      -62.91700        1.14400
C         20.25200      -61.44100        2.69400
O         21.48700      -61.24800        2.67000
O         19.48000      -60.76800        3.40800
C         16.73400      -63.49900        1.21900
O         16.69100      -64.16500        0.18800
N         16.40400      -64.05800        2.37700
H         16.44200      -63.51000        3.22900
H         16.11900      -65.02000        2.38600
H         21.81200      -60.47700        5.60200
C         22.71300      -59.92500        5.34500
H         23.23400      -60.46100        4.55500
H         23.34600      -59.81400        6.22100
C         22.32600      -58.56000        4.82700
O         22.98200      -57.57700        5.16300
N         21.29700      -58.49700        3.98300
H         20.78700      -59.36200        3.79900
C         20.91400      -57.28500        3.25000
H         21.82700      -56.74500        2.99700
C         20.23500      -57.68500        1.92300
H         19.55400      -58.52000        2.08500
H         19.64800      -56.84500        1.55400
C         21.23200      -58.04400        0.83500
O         21.42700      -57.31300       -0.12400
N         21.91700      -59.15700        0.92300
H         21.77100      -59.80400        1.70600
H         22.56600      -59.35900        0.19500
C         20.06600      -56.26900        4.04700
O         19.89900      -55.14600        3.56700
N         19.55000      -56.60500        5.23800
H         19.72100      -57.54700        5.58400
C         18.72000      -55.68800        6.04400
H         18.81000      -54.67800        5.64400
C         17.24200      -56.08900        5.93700
H         17.11800      -57.09200        6.34500
H         16.67300      -55.40500        6.56700
S         16.50700      -56.04300        4.27800
C         19.12700      -55.58600        7.52600
O         18.86900      -54.56500        8.16200
N         19.76400      -56.62200        8.07100
H         19.87700      -57.44400        7.48400
C         20.21700      -56.74600        9.45800
H         20.18800      -55.76900        9.94200
C         19.26900      -57.70100       10.20900
H         19.30800      -58.68700        9.74500
H         19.61300      -57.80100       11.23800
C         17.82500      -57.23500       10.24800
O         17.40000      -56.52500       11.14500
N         17.00700      -57.65100        9.31100
H         16.06300      -57.33300        9.35200
H         17.36000      -58.25300        8.55900
C         21.67000      -57.25900        9.54100
O         22.36600      -57.00200       10.51900
N         22.16000      -57.97600        8.53600
H         23.11800      -58.27400        8.57000
H         21.56200      -58.23000        7.75500
