93
-2 1
H         23.29300      -59.62500        3.47100
C         23.66000      -58.62200        3.26200
H         22.86500      -57.89800        3.42200
H         24.01800      -58.56700        2.23600
C         24.80400      -58.31700        4.19800
O         25.91700      -58.07100        3.75100
N         24.51200      -58.32400        5.49300
H         23.56700      -58.56300        5.77500
C         25.48900      -58.23600        6.58800
H         26.34100      -57.63400        6.26900
C         24.82900      -57.54400        7.80100
H         25.52700      -57.56800        8.63900
H         24.66800      -56.49600        7.54200
C         23.48100      -58.13000        8.25900
O         22.97600      -59.10100        7.65200
O         22.90900      -57.59700        9.23200
C         26.03500      -59.61900        6.99600
O         27.20400      -59.74400        7.35900
N         25.18000      -60.64400        6.93400
H         24.21400      -60.39600        6.74700
C         25.45300      -62.05300        7.21700
H         24.49000      -62.51400        7.42000
C         26.03700      -62.75700        5.98700
H         26.98400      -62.28000        5.73300
H         26.25800      -63.78500        6.27800
S         24.99200      -62.83100        4.49300
C         26.23700      -62.28300        8.51600
O         27.26700      -62.95600        8.54300
N         25.71200      -61.69900        9.60000
H         24.86400      -61.17400        9.44500
C         26.12200      -61.93400       10.99200
H         25.52300      -61.26500       11.60800
C         25.74300      -63.36900       11.42500
H         26.29100      -64.09800       10.82700
H         26.05100      -63.50300       12.46300
C         24.23300      -63.67600       11.35900
H         24.05900      -64.62500       11.87100
H         23.69600      -62.90800       11.92000
C         23.66000      -63.78800        9.93600
O         22.69900      -63.05400        9.61000
O         24.12100      -64.64000        9.14700
C         27.58200      -61.55200       11.33200
O         28.03600      -61.73700       12.45800
N         28.33200      -60.95300       10.41400
H         29.27900      -60.71200       10.64300
H         27.96900      -60.83700        9.47600
H         22.39300      -60.68200       12.30300
C         22.39600      -60.26100       11.30100
H         23.22200      -60.66800       10.72600
H         22.48400      -59.17700       11.34200
C         21.10300      -60.61800       10.60800
O         20.18400      -61.12200       11.24800
N         21.03000      -60.33100        9.31000
H         21.84200      -59.89900        8.87400
C         19.82800      -60.45800        8.48300
H         18.98000      -60.68700        9.13000
C         19.54900      -59.09500        7.81700
H         20.41700      -58.78400        7.23700
H         18.70800      -59.20000        7.13200
C         19.19000      -58.00100        8.80800
O         18.02800      -57.72200        9.05900
N         20.14700      -57.31700        9.38800
H         19.87700      -56.63400       10.06200
H         21.13400      -57.54600        9.23100
C         19.88300      -61.60800        7.45100
O         18.92000      -61.78100        6.70300
N         20.96300      -62.40000        7.38600
H         21.70000      -62.26300        8.07500
C         21.03800      -63.58700        6.51500
H         20.37300      -63.45200        5.66100
C         22.46200      -63.75000        5.97100
H         23.12900      -63.96400        6.80600
H         22.48000      -64.61600        5.30900
S         23.09000      -62.31700        5.05200
C         20.59400      -64.86600        7.24400
O         19.90700      -65.70600        6.66500
N         20.96400      -64.98900        8.52000
H         21.59800      -64.27600        8.87500
C         20.56200      -66.05000        9.44800
H         19.74700      -66.62400        9.00200
C         21.74700      -67.00500        9.69700
H         22.52800      -66.47700       10.24300
H         21.40600      -67.82900       10.32100
C         22.35200      -67.59800        8.43700
O         21.95400      -68.64900        7.96200
N         23.36700      -66.97800        7.88500
H         23.76100      -67.37200        7.05800
H         23.70900      -66.10500        8.30600
C         20.03800      -65.47800       10.78200
O         19.36300      -66.17500       11.53400
N         20.32400      -64.22000       11.10400
H         19.94200      -63.82700       11.94800
H         20.91200      -63.65500       10.50400
