93
-2 1
H         19.12400      -61.22700        4.99100
C         18.41200      -60.85600        4.25600
H         18.35900      -59.77200        4.32800
H         17.43000      -61.29100        4.42700
C         18.89200      -61.22700        2.87600
O         18.16700      -61.87300        2.12700
N         20.10500      -60.80300        2.54300
H         20.63300      -60.29200        3.25500
C         20.74800      -61.01900        1.24200
H         20.48000      -62.01800        0.89500
C         20.23400      -60.01600        0.18700
H         20.79800      -60.16600       -0.73600
H         19.19300      -60.26000       -0.03200
C         20.29300      -58.52700        0.55900
O         20.70400      -58.15900        1.68000
O         19.92200      -57.69700       -0.29900
C         22.28700      -60.99400        1.33000
O         22.92800      -61.99900        1.02200
N         22.89500      -59.88700        1.76800
H         22.29900      -59.10200        2.02600
C         24.35300      -59.75500        1.89100
H         24.81100      -60.10200        0.96400
C         24.73100      -58.27900        2.08700
H         23.99600      -57.79400        2.73300
H         25.69100      -58.25200        2.60300
S         24.94100      -57.31700        0.56000
C         24.95100      -60.61500        3.02100
O         26.12900      -60.96600        2.96600
N         24.16100      -60.96600        4.03600
H         23.21200      -60.58900        4.04800
C         24.50900      -61.94500        5.07500
H         25.59200      -61.94400        5.19500
C         23.90800      -61.51700        6.42900
H         24.26100      -62.22000        7.18400
H         24.30200      -60.53700        6.70200
C         22.37100      -61.48100        6.50300
H         21.94700      -62.32000        5.94700
H         22.08100      -61.60800        7.54900
C         21.79400      -60.15600        5.98800
O         21.65300      -60.01100        4.75400
O         21.46900      -59.28500        6.82300
C         24.13300      -63.39500        4.70000
O         24.39100      -64.32700        5.45800
N         23.53600      -63.63600        3.53700
H         23.29400      -64.58200        3.30500
H         23.35100      -62.87800        2.89300
H         17.31500      -58.96700        1.61600
C         16.96000      -58.06100        1.12700
H         15.87700      -58.09300        1.04300
H         17.40500      -57.98300        0.13800
C         17.35100      -56.84500        1.93500
O         16.69700      -55.81300        1.82500
N         18.39900      -56.96200        2.74800
H         18.99200      -57.78000        2.64900
C         18.87700      -55.89700        3.63200
H         18.02200      -55.30800        3.97100
C         19.54200      -56.53800        4.86600
H         20.27400      -57.28200        4.54300
H         20.07000      -55.77300        5.43200
C         18.55000      -57.19300        5.81500
O         17.38600      -56.83500        5.90700
N         18.97200      -58.16200        6.58600
H         19.94900      -58.48200        6.54800
H         18.31200      -58.58500        7.20100
C         19.82800      -54.90900        2.93300
O         19.83300      -53.73000        3.28500
N         20.62000      -55.35400        1.95000
H         20.60300      -56.35300        1.73800
C         21.53400      -54.49800        1.18600
H         21.66800      -53.56400        1.73400
C         22.91600      -55.15900        1.12200
H         23.62700      -54.41900        0.75400
H         23.20900      -55.42200        2.13900
S         23.08300      -56.63900        0.09100
C         20.99200      -54.09500       -0.19800
O         21.31200      -53.00600       -0.67300
N         20.14100      -54.91500       -0.82700
H         19.98800      -55.84300       -0.43300
C         19.38000      -54.54200       -2.02900
H         19.96000      -53.81900       -2.60600
C         19.16600      -55.78400       -2.91200
H         18.65100      -56.55800       -2.34300
H         18.53800      -55.51200       -3.76000
C         20.46200      -56.34500       -3.46900
O         20.91800      -55.97800       -4.53900
N         21.08600      -57.26100       -2.77300
H         21.97000      -57.58500       -3.10500
H         20.71500      -57.50600       -1.85200
C         18.03400      -53.86000       -1.70300
O         17.42100      -53.24500       -2.57000
N         17.53800      -53.95200       -0.47400
H         16.65000      -53.52500       -0.27500
H         18.01400      -54.49400        0.23100
