120
2 1
H         43.06800       -4.38300       15.81500
C         43.41500       -3.37700       15.58300
H         44.50100       -3.35000       15.65200
H         42.98100       -2.67000       16.28800
C         42.99300       -3.01900       14.17800
O         42.28100       -2.03600       13.98500
N         43.43900       -3.79700       13.18900
H         44.02700       -4.58500       13.46000
C         43.09200       -3.65900       11.76000
H         42.10000       -3.21400       11.68500
C         44.11500       -2.76100       11.02900
H         45.10800       -3.19500       11.15800
H         43.89200       -2.77600        9.96000
C         44.17300       -1.28800       11.47900
H         44.42400       -1.23600       12.53800
H         44.97800       -0.79900       10.92700
C         42.86800       -0.51900       11.21300
H         42.64600       -0.57500       10.14600
H         42.04000       -0.99000       11.74400
N         42.97300        0.90300       11.60200
H         43.28500        1.53700       10.88600
C         42.65800        1.44100       12.77000
N         42.25400        0.74200       13.79100
H         42.00900        1.17500       14.66000
H         42.20800       -0.27400       13.72100
N         42.74500        2.73100       12.93700
H         43.04400        3.32500       12.18400
H         42.50200        3.13700       13.82200
C         43.01600       -5.03200       11.08500
O         43.76600       -5.94300       11.42500
N         42.11800       -5.18800       10.11800
H         41.55700       -4.39900        9.84600
C         41.93300       -6.43800        9.37300
H         42.36700       -7.25800        9.93800
C         40.43200       -6.71600        9.25100
H         39.99100       -5.95100        8.60800
H         40.27300       -7.68400        8.77400
S         39.54800       -6.69200       10.83800
C         42.64800       -6.38700        8.01300
O         42.72900       -5.32300        7.40300
N         43.17500       -7.52100        7.53700
H         43.05100       -8.37800        8.05800
C         43.93900       -7.60500        6.28200
H         43.47600       -6.92700        5.56100
C         45.38800       -7.11600        6.50600
H         45.91500       -7.11300        5.55100
H         45.33500       -6.07600        6.83200
C         46.22500       -7.88200        7.55400
H         47.04000       -7.22800        7.86300
H         45.62500       -8.09600        8.43800
C         46.85900       -9.17300        7.04200
O         46.57700      -10.26400        7.51600
N         47.71600       -9.11900        6.04600
H         48.15000       -9.98300        5.77000
H         48.00900       -8.23700        5.66400
C         43.88600       -9.01300        5.66600
O         43.68100      -10.00700        6.36000
N         44.08900       -9.12700        4.36000
H         44.04300      -10.04100        3.94000
H         44.24800       -8.30800        3.79400
H         37.82400      -12.76200       11.20900
C         38.25500      -13.27500       12.06600
H         38.14200      -14.35200       11.95300
H         37.74200      -12.95500       12.97300
C         39.72000      -12.92900       12.18500
O         40.14200      -12.36500       13.18700
N         40.50500      -13.25400       11.15100
H         40.05900      -13.72000       10.37600
C         41.96800      -13.04500       11.09100
H         42.38000      -13.35600       12.05400
C         42.56400      -13.96300       10.00300
H         42.15100      -14.96800       10.10800
H         42.25700      -13.57900        9.03100
C         44.10300      -14.06900       10.10100
H         44.53200      -13.12500       10.43300
H         44.35000      -14.80700       10.86500
C         44.79700      -14.46900        8.78500
H         45.87600      -14.45600        8.95000
H         44.51400      -15.49400        8.53800
C         44.46600      -13.56900        7.58000
H         45.10400      -13.85400        6.73900
H         43.43000      -13.75700        7.28700
N         44.63300      -12.12500        7.87700
H         45.60400      -11.83800        7.98300
H         44.26700      -11.53500        7.13300
H         44.12800      -11.84800        8.71500
C         42.36400      -11.56200       10.92200
O         43.00600      -11.18400        9.93600
N         41.96700      -10.71500       11.86200
H         41.41500      -11.10400       12.62000
C         42.47900       -9.35400       12.02700
H         42.73700       -8.95400       11.05000
C         41.35600       -8.49000       12.61900
H         41.13900       -8.84900       13.62700
H         41.69100       -7.45600       12.69700
S         39.80900       -8.54200       11.66000
C         43.76900       -9.35600       12.87500
O         44.14300      -10.38400       13.43500
N         44.46900       -8.22100       12.95000
H         44.11300       -7.39500       12.48100
C         45.74800       -8.06200       13.65400
H         45.95900       -8.96100       14.23500
C         46.88600       -7.86000       12.63200
H         46.69000       -6.93100       12.09300
H         47.82200       -7.73200       13.17700
C         47.07400       -8.98800       11.59800
H         46.14800       -9.13700       11.04000
C         48.16500       -8.58900       10.60300
H         49.11900       -8.47800       11.12000
H         48.26300       -9.35700        9.83600
H         47.90600       -7.64300       10.13100
C         47.48900      -10.31300       12.23900
H         46.70300      -10.67500       12.89900
H         47.65600      -11.06200       11.46500
H         48.40700      -10.18300       12.81300
C         45.69100       -6.88700       14.64300
O         45.01800       -5.88600       14.40700
N         46.42000       -6.97100       15.74600
H         46.96800       -7.79500       15.93100
H         46.39400       -6.20600       16.40000
