120
2 1
H         38.72400       -4.72200        7.10100
C         39.67200       -5.11900        6.74300
H         39.67600       -5.14600        5.65400
H         39.80600       -6.13100        7.12500
C         40.80800       -4.25400        7.23500
O         41.69200       -4.73700        7.92900
N         40.79500       -2.96700        6.86500
H         40.02500       -2.66700        6.28500
C         41.83500       -1.97000        7.22000
H         41.66200       -1.08900        6.60000
C         41.68500       -1.52100        8.69200
H         41.83200       -2.38000        9.34600
H         42.45500       -0.78000        8.91300
C         40.30900       -0.89000        8.97900
H         40.11500       -0.12300        8.22800
H         39.53100       -1.65000        8.89800
C         40.21500       -0.22800       10.36300
H         41.01200        0.51200       10.46000
H         39.25600        0.29200       10.41600
N         40.30800       -1.20300       11.46700
H         40.77400       -2.08500       11.27900
C         39.86200       -1.07100       12.70300
N         39.24200       -0.00200       13.12300
H         38.91300        0.05500       14.06900
H         39.09300        0.75800       12.48600
N         40.04400       -2.03900       13.54900
H         40.54400       -2.86200       13.21800
H         39.71600       -1.98700       14.49400
C         43.26400       -2.41400        6.84300
O         44.23200       -2.12100        7.54500
N         43.38400       -3.13900        5.72900
H         42.53500       -3.34100        5.22600
C         44.63800       -3.65000        5.16900
H         45.19200       -4.17800        5.93400
C         44.29300       -4.65400        4.06100
H         43.86900       -4.10200        3.22100
H         45.21200       -5.12600        3.70900
S         43.10800       -5.96200        4.50300
C         45.55200       -2.52800        4.64600
O         46.76900       -2.58900        4.81500
N         44.96300       -1.47800        4.07000
H         43.95000       -1.48200        4.03100
C         45.64900       -0.27500        3.59000
H         46.46300       -0.59300        2.93700
C         44.67400        0.56600        2.73800
H         45.23200        1.41600        2.34300
H         44.34800       -0.02300        1.87900
C         43.43200        1.12000        3.47000
H         43.67100        1.35900        4.50600
H         43.13900        2.05000        2.98200
C         42.24000        0.16500        3.43400
O         42.19600       -0.84200        4.12600
N         41.23500        0.42600        2.62900
H         40.47500       -0.23200        2.60900
H         41.24200        1.24000        2.03900
C         46.28400        0.54700        4.73300
O         45.99700        0.35100        5.91300
N         47.16500        1.48300        4.40500
H         47.56600        2.04900        5.13600
H         47.40400        1.64400        3.43900
H         48.64000       -9.87800        5.73000
C         48.89900       -8.84300        5.50300
H         48.39700       -8.53800        4.58700
H         49.97900       -8.76500        5.38200
C         48.45300       -7.96500        6.64800
O         47.87700       -8.44900        7.61200
N         48.69100       -6.65400        6.53800
H         49.16300       -6.35300        5.69900
C         48.40100       -5.63600        7.57200
H         48.75700       -6.03800        8.52400
C         49.21500       -4.36400        7.25000
H         50.21800       -4.64600        6.92200
H         48.73000       -3.85900        6.41400
C         49.37000       -3.41200        8.45700
H         48.51000       -3.47300        9.12000
H         50.23100       -3.73900        9.04200
C         49.57400       -1.93600        8.06900
H         49.65400       -1.34900        8.98600
H         50.52500       -1.84800        7.54100
C         48.47200       -1.32600        7.18200
H         48.69800       -0.26700        7.03100
H         48.50300       -1.80500        6.19900
N         47.10600       -1.46400        7.74400
H         47.03000       -1.07700        8.67000
H         46.43100       -0.98900        7.14400
H         46.81500       -2.44000        7.77200
C         46.89500       -5.34400        7.77100
O         46.50600       -4.18800        7.95000
N         46.02200       -6.34200        7.68200
H         46.39600       -7.28200        7.59800
C         44.57500       -6.19100        7.84100
H         44.24100       -5.28600        7.34400
C         43.87600       -7.35900        7.14400
H         44.20300       -8.29000        7.61100
H         42.80000       -7.27100        7.29600
S         44.20300       -7.46200        5.35800
C         44.19600       -6.04300        9.32100
O         44.04200       -7.02500       10.04300
N         44.06700       -4.79300        9.77900
H         44.20200       -4.04600        9.11200
C         43.73500       -4.42900       11.16100
H         44.28500       -5.10100       11.82300
C         44.21100       -2.98600       11.44800
H         43.59800       -2.29600       10.86900
H         44.04200       -2.77500       12.50500
C         45.68900       -2.69300       11.12200
H         45.86100       -2.83200       10.05700
C         46.01100       -1.23300       11.44500
H         47.05200       -1.01800       11.20500
H         45.36400       -0.57300       10.86800
H         45.85400       -1.04600       12.50800
C         46.65900       -3.58500       11.89700
H         47.68800       -3.29900       11.68000
H         46.48200       -3.49000       12.96900
H         46.52600       -4.62600       11.60300
C         42.23900       -4.65100       11.48300
O         41.52700       -3.73400       11.89400
N         41.72200       -5.85200       11.27400
H         42.32100       -6.58800       10.91700
H         40.74800       -6.01800       11.45900
