106
0 1
H          7.52200        2.40800       17.23400
C          8.33400        2.45400       16.51200
H          8.89100        1.51900       16.51300
H          8.99400        3.27900       16.77500
C          7.75500        2.67700       15.13600
O          6.58200        2.39400       14.90800
N          8.58100        3.20600       14.23500
H          9.53900        3.35200       14.50600
C          8.22300        3.48100       12.84000
H          7.28200        4.02000       12.82400
C          9.28800        4.37700       12.18000
H         10.24500        3.85200       12.20600
H          9.01900        4.51900       11.13200
C          9.46200        5.76500       12.82700
H          9.76100        5.64600       13.86800
C         10.56700        6.53000       12.09800
H         10.29000        6.68400       11.05400
H         10.72300        7.49700       12.57500
H         11.49800        5.96500       12.14100
C          8.18400        6.60600       12.77200
H          7.41000        6.15500       13.39100
H          8.38300        7.60700       13.15300
H          7.82700        6.67700       11.74400
C          8.01200        2.19900       12.02200
O          8.61700        1.16300       12.29700
N          7.17900        2.28200       10.98600
H          6.68500        3.15500       10.82700
C          7.05300        1.23000        9.98300
H          6.84600        0.28400       10.48500
C          5.87600        1.55700        9.06000
H          6.08600        2.50100        8.55400
H          5.80000        0.78100        8.29700
S          4.27000        1.70200        9.88300
C          8.35800        1.08200        9.18200
O          8.79400        2.02200        8.51900
N          8.97100       -0.10400        9.22900
H          8.55300       -0.83900        9.78300
C         10.25700       -0.42200        8.58400
H         10.39200        0.24300        7.73100
C         11.45300       -0.20700        9.54100
H         12.35600       -0.50800        9.00800
C         11.63500        1.26500        9.92700
H         10.80700        1.59600       10.55400
H         12.56600        1.38900       10.47900
H         11.66900        1.88200        9.03000
C         11.37200       -1.04500       10.82500
H         11.29300       -2.10400       10.58300
H         12.27200       -0.89100       11.42000
H         10.50500       -0.74700       11.41600
C         10.25300       -1.85500        8.04500
O          9.52000       -2.71300        8.52300
N         11.07300       -2.14700        7.04500
H         11.67000       -1.44000        6.65200
H         11.06700       -3.09000        6.69100
H          3.21200        6.46600       10.31600
C          4.27700        6.58800       10.50500
H          4.46400        7.56900       10.93800
H          4.82900        6.48400        9.57200
C          4.73100        5.52100       11.47100
O          5.60000        4.71800       11.14200
N          4.15900        5.51800       12.67200
H          3.43500        6.19800       12.87500
C          4.39200        4.48400       13.67800
H          5.43900        4.20700       13.64300
C          4.13000        5.04300       15.08800
H          4.29100        4.25200       15.82000
H          4.84500        5.83800       15.29500
C          2.73600        5.62400       15.26700
O          2.38300        6.62800       14.66900
N          1.91700        5.03700       16.10400
H          0.98700        5.40500       16.15100
H          2.19000        4.17300       16.56200
C          3.57200        3.21400       13.38500
O          2.34600        3.25500       13.34000
N          4.25200        2.07400       13.24600
H          5.25800        2.11200       13.33800
C          3.61500        0.75300       13.21300
H          2.61700        0.84600       12.78100
C          4.42600       -0.18700       12.30800
H          5.48700        0.05300       12.37400
H          4.29200       -1.20700       12.67200
S          3.89100       -0.17700       10.57200
C          3.41800        0.16900       14.62400
O          2.59200       -0.72200       14.80600
N          4.13300        0.67400       15.63900
H          4.82400        1.38600       15.43300
C          3.78200        0.42900       17.04400
H          3.42200       -0.59600       17.14000
C          5.01300        0.57200       17.97100
H          5.41500        1.58000       17.86400
C          4.60200        0.37700       19.44500
H          5.45800        0.53400       20.10000
H          3.84600        1.10600       19.73400
H          4.21200       -0.63000       19.59700
C          6.10100       -0.44800       17.55100
H          5.65900       -1.44400       17.50100
H          6.45700       -0.19100       16.55300
C          7.32900       -0.52000       18.47000
H          8.10100       -1.12400       17.99200
H          7.72200        0.47900       18.65500
H          7.06500       -0.98900       19.41800
C          2.63000        1.36800       17.43300
O          2.74900        2.58900       17.35600
N          1.50400        0.82200       17.86900
H          1.40200       -0.17900       17.87600
H          0.73800        1.42900       18.10800
