106
0 1
H          1.02000       -1.65800       20.78500
C          0.04800       -1.17800       20.69200
H          0.16200       -0.09600       20.71000
H         -0.60300       -1.47500       21.51200
C         -0.59100       -1.61000       19.39700
O         -1.38200       -2.54800       19.37700
N         -0.26800       -0.90600       18.31300
H          0.42500       -0.18300       18.40200
C         -0.88700       -1.12700       17.00400
H         -1.96000       -1.07400       17.16600
C         -0.52900        0.02600       16.04500
H         -1.21500       -0.00100       15.19700
H         -0.72500        0.96000       16.57300
C          0.92400        0.02800       15.52000
H          1.57700       -0.49100       16.22200
C          1.03400       -0.62800       14.14200
H          0.72700       -1.67000       14.19400
H          0.40200       -0.10700       13.42200
H          2.06700       -0.59100       13.79900
C          1.43200        1.46400       15.37800
H          1.41900        1.95900       16.34900
H          2.45700        1.45700       15.00700
H          0.80100        2.01800       14.68200
C         -0.59400       -2.52400       16.42800
O          0.46300       -3.10500       16.67500
N         -1.53100       -3.04500       15.63600
H         -2.38900       -2.51500       15.51700
C         -1.47200       -4.36700       15.00700
H         -1.23300       -5.10500       15.77400
C         -2.86200       -4.70000       14.45100
H         -3.11900       -3.95300       13.69900
H         -2.81400       -5.66700       13.94800
S         -4.20200       -4.76200       15.66900
C         -0.38400       -4.47400       13.91700
O         -0.67000       -4.44100       12.72000
N          0.87900       -4.59600       14.33100
H          1.05000       -4.51700       15.32700
C          2.01700       -4.89300       13.44700
H          1.97600       -4.20100       12.60700
C          3.36900       -4.68400       14.16200
H          4.16000       -4.99100       13.47700
C          3.59600       -3.20200       14.48200
H          4.59200       -3.06500       14.90400
H          3.51700       -2.61200       13.57000
H          2.85600       -2.85400       15.20400
C          3.52700       -5.49300       15.45700
H          3.39800       -6.55600       15.25500
H          4.52500       -5.33900       15.86600
H          2.79100       -5.17900       16.19700
C          1.92500       -6.31200       12.86900
O          1.50000       -7.25200       13.52800
N          2.35400       -6.50200       11.62900
H          2.68300       -5.72700       11.07900
H          2.28500       -7.43100       11.24600
H         -5.57400       -0.82700       14.11200
C         -6.06600       -0.75200       15.08100
H         -6.90300       -1.44800       15.11500
H         -6.42100        0.26500       15.23400
C         -5.07900       -1.11200       16.16400
O         -3.93200       -1.42300       15.86700
N         -5.52600       -1.05800       17.41800
H         -6.49800       -0.83500       17.55400
C         -4.78500       -1.55500       18.58100
H         -3.72000       -1.36000       18.45000
C         -5.26300       -0.80100       19.83500
H         -4.97000        0.24600       19.77200
H         -6.35000       -0.85700       19.89500
C         -4.66900       -1.39000       21.10500
O         -3.46900       -1.54200       21.23800
N         -5.48600       -1.78500       22.04900
H         -5.06700       -2.24300       22.85600
H         -6.47900       -1.73600       21.93100
C         -4.97600       -3.07300       18.74600
O         -6.11100       -3.54400       18.76300
N         -3.88000       -3.80500       18.94600
H         -2.98400       -3.32800       18.95600
C         -3.87500       -5.23900       19.25000
H         -4.88500       -5.63400       19.13600
C         -2.98300       -5.96600       18.23200
H         -2.12000       -5.34800       17.98300
H         -2.61300       -6.88000       18.70000
S         -3.84500       -6.47200       16.71600
C         -3.47000       -5.55700       20.70300
O         -3.65200       -6.69400       21.13900
N         -2.95800       -4.59400       21.48500
H         -2.83300       -3.66200       21.10400
C         -2.72200       -4.79400       22.92500
H         -2.38800       -5.82100       23.08000
C         -1.58900       -3.88200       23.45500
H         -1.84600       -2.84000       23.25500
C         -1.41800       -4.05800       24.97900
H         -1.12600       -5.08300       25.21000
H         -0.66000       -3.37300       25.35600
H         -2.34300       -3.82100       25.50300
C         -0.27000       -4.22900       22.72000
H         -0.08200       -5.30000       22.80400
H         -0.38500       -3.99700       21.66100
C          0.97800       -3.48800       23.22200
H          1.79900       -3.65300       22.52400
H          0.77800       -2.41900       23.29400
H          1.27600       -3.86800       24.19900
C         -4.05500       -4.64200       23.67500
O         -4.48500       -3.54700       24.02900
N         -4.75400       -5.74500       23.89900
H         -4.43300       -6.61900       23.50900
H         -5.63900       -5.67000       24.36900
