87
0 1
H         33.41400       25.84000      -13.86200
C         34.37300       25.54800      -13.43700
H         34.68200       26.27400      -12.68700
H         35.11700       25.49900      -14.23000
C         34.23500       24.19200      -12.79000
O         34.47600       24.04800      -11.59700
N         33.86700       23.18600      -13.58000
H         33.66400       23.42100      -14.54800
C         33.62100       21.79500      -13.15800
H         33.03800       21.82600      -12.23800
C         32.77600       21.09100      -14.24400
H         33.34400       21.10300      -15.17500
H         32.63200       20.04700      -13.96000
C         31.38600       21.70700      -14.50100
H         31.48200       22.76600      -14.73200
C         30.73400       21.01700      -15.70000
H         30.61100       19.95200      -15.49900
H         29.75900       21.46300      -15.89500
H         31.36000       21.14900      -16.58100
C         30.45400       21.55300      -13.29700
H         30.84100       22.12000      -12.45200
H         29.46800       21.94400      -13.54500
H         30.36500       20.50200      -13.02200
C         34.90800       21.00700      -12.80400
O         35.06400       19.84900      -13.18400
N         35.84500       21.62800      -12.08300
H         35.61200       22.56000      -11.75400
C         37.24000       21.19600      -11.91500
H         37.70800       21.18200      -12.89500
C         37.96400       22.24700      -11.06800
H         37.46200       22.31800      -10.10200
H         38.98200       21.90200      -10.88100
S         38.07500       23.91600      -11.76700
C         37.47800       19.79900      -11.30000
O         38.59700       19.29900      -11.36000
N         36.48700       19.15400      -10.70000
H         35.55800       19.54000      -10.72100
H         36.66600       18.22900      -10.34700
H         42.20000       20.72100      -13.42500
C         41.29400       20.15200      -13.22100
H         40.77900       20.57800      -12.36200
H         41.54900       19.11400      -13.01200
C         40.38800       20.21300      -14.42500
O         40.67400       20.92400      -15.38100
N         39.27100       19.49000      -14.38200
H         39.07800       18.96600      -13.53500
C         38.26200       19.41000      -15.45600
H         38.79300       19.31700      -16.40400
C         37.43300       18.12900      -15.27100
H         36.63200       18.08600      -16.01000
H         38.08600       17.26900      -15.42800
O         36.89300       18.04200      -13.96700
H         36.15500       18.67800      -13.87200
C         37.37900       20.66900      -15.57600
O         36.16700       20.56700      -15.73500
N         37.97300       21.86200      -15.46400
H         38.98700       21.84400      -15.40800
C         37.33200       23.16300      -15.21900
H         36.65000       23.03600      -14.37900
C         38.42000       24.15600      -14.78100
H         39.11200       24.29200      -15.61300
H         37.95300       25.12300      -14.58900
S         39.38900       23.72100      -13.31100
C         36.47800       23.74200      -16.37600
O         36.56800       24.92700      -16.69400
N         35.63600       22.92700      -17.01300
H         35.59000       21.96800      -16.68800
C         34.66200       23.35600      -18.01800
H         35.18400       23.93700      -18.77900
C         34.02400       22.11700      -18.67600
H         33.47100       21.57300      -17.90900
H         33.30700       22.45200      -19.42600
C         35.01300       21.13900      -19.34100
H         35.72300       20.77000      -18.60100
C         34.24600       19.94100      -19.90100
H         34.94500       19.23100      -20.34400
H         33.70900       19.44100      -19.09500
H         33.53600       20.26700      -20.66100
C         35.79000       21.78800      -20.48900
H         35.10000       22.19700      -21.22700
H         36.42800       22.58300      -20.10500
H         36.42700       21.04400      -20.96700
C         33.58500       24.26400      -17.39800
O         33.19400       24.09700      -16.24700
N         33.06000       25.21200      -18.16100
H         32.35600       25.80900      -17.75900
H         33.39400       25.35000      -19.10000
