86
0 1
H          3.58300        1.35700      -75.89300
C          2.65000        1.01400      -76.33400
H          2.86000        0.40500      -77.21100
H          2.09800        0.42800      -75.60200
C          1.82500        2.20800      -76.74700
O          1.61100        2.43300      -77.93200
N          1.37000        2.99900      -75.77700
H          1.62600        2.77600      -74.82000
C          0.53800        4.19900      -75.98300
H         -0.20500        3.96300      -76.74400
C         -0.22600        4.51500      -74.68800
H         -0.78800        5.44300      -74.80100
H         -0.93300        3.70800      -74.49300
O          0.65300        4.61500      -73.58700
H          1.24000        5.38600      -73.70600
C          1.33000        5.41200      -76.50800
O          1.23600        6.50800      -75.96200
N          2.13500        5.21800      -77.55700
H          2.12300        4.28500      -77.95900
C          3.14000        6.14900      -78.09100
H          3.74200        6.50200      -77.25400
C          4.06600        5.36600      -79.03400
H          3.47500        5.03400      -79.88900
H          4.82800        6.04800      -79.41500
S          4.91700        3.91700      -78.35100
C          2.57700        7.41600      -78.78800
O          2.99200        7.76800      -79.89100
N          1.61400        8.10800      -78.17500
H          1.32200        7.78100      -77.26000
C          1.05000        9.37100      -78.67600
H          0.80500        9.22900      -79.72900
C         -0.25600        9.74400      -77.94300
H         -0.62300       10.67700      -78.37300
C         -1.33500        8.67800      -78.17000
H         -1.04600        7.73700      -77.70100
H         -2.27800        9.01300      -77.73800
H         -1.47700        8.51700      -79.23900
C         -0.08700        9.95900      -76.43300
H          0.64000       10.74700      -76.24100
H         -1.04000       10.25800      -75.99700
H          0.24400        9.03900      -75.95100
C          2.06900       10.51500      -78.60200
O          2.90000       10.57900      -77.69900
N          2.01200       11.45700      -79.53300
H          2.68700       12.20400      -79.49400
H          1.34600       11.39100      -80.28300
H          8.01500        9.33500      -72.74600
C          7.94200        8.28600      -73.02800
H          8.54000        7.68400      -72.34400
H          8.30200        8.15000      -74.04600
C          6.50100        7.84500      -72.93900
O          6.18200        6.92900      -72.19000
N          5.63400        8.46900      -73.73800
H          5.98500        9.15900      -74.38400
C          4.18000        8.22000      -73.75800
H          3.76200        8.51300      -72.79400
C          3.53300        9.08800      -74.84200
H          2.47100        8.85100      -74.91700
H          3.64000       10.13900      -74.57200
O          4.16100        8.86600      -76.09100
H          3.76700        9.49800      -76.73000
C          3.79700        6.75300      -73.98500
O          2.75600        6.31400      -73.50100
N          4.66600        5.96800      -74.63100
H          5.47900        6.41400      -75.02700
C          4.52400        4.52300      -74.80900
H          3.69300        4.33000      -75.48200
C          5.80800        3.98800      -75.45200
H          6.63300        4.15500      -74.75800
H          5.70600        2.91000      -75.58000
S          6.28000        4.69300      -77.05300
C          4.26800        3.74200      -73.50400
O          3.64100        2.68700      -73.55700
N          4.75100        4.23500      -72.35700
H          5.23700        5.12500      -72.37700
C          4.60300        3.59000      -71.04800
H          4.77000        2.51900      -71.17100
C          5.70200        4.14300      -70.13200
H          5.55400        5.21300      -69.97400
H          5.66600        3.63400      -69.16800
H          6.68200        3.97800      -70.58200
C          3.20400        3.74700      -70.40700
O          2.93600        3.17500      -69.35600
N          2.29700        4.52000      -70.99000
H          2.50100        4.97300      -71.86800
H          1.38100        4.57700      -70.58000
