86
0 1
H         10.17200        5.83900      -69.82200
C         10.83800        5.86200      -68.96100
H         10.42900        5.23600      -68.17000
H         11.82500        5.50300      -69.24500
C         10.94900        7.28100      -68.45500
O         10.67600        7.54900      -67.29200
N         11.36400        8.20000      -69.32400
H         11.53200        7.91700      -70.27800
C         11.57200        9.62100      -69.00700
H         11.98600        9.68800      -68.00000
C         12.61200       10.20200      -69.97400
H         12.83900       11.23300      -69.69600
H         13.53000        9.61500      -69.91300
O         12.12100       10.16500      -71.29900
H         11.39400       10.80300      -71.34000
C         10.26500       10.43800      -69.00500
O         10.19600       11.50200      -69.62200
N          9.20900        9.93000      -68.36700
H          9.33400        9.06200      -67.85300
C          7.87500       10.53800      -68.35100
H          7.98700       11.62300      -68.31200
C          7.14200       10.16500      -69.65400
H          7.85200        9.68500      -70.33000
H          6.37000        9.43100      -69.44000
S          6.41800       11.55500      -70.56600
C          7.07500       10.10200      -67.10800
O          7.52500        9.28700      -66.30500
N          5.86200       10.63600      -66.94500
H          5.53600       11.28400      -67.64700
C          4.93200       10.25200      -65.86900
H          5.45000       10.36900      -64.91600
C          3.69500       11.17600      -65.85700
H          3.19700       11.11500      -66.82500
C          2.68000       10.79200      -64.77200
H          2.26200        9.80600      -64.97500
H          3.15600       10.79400      -63.79100
H          1.85600       11.50600      -64.76900
C          4.10000       12.63700      -65.61600
H          4.62100       12.73000      -64.66200
H          4.75200       12.99000      -66.41500
H          3.21300       13.27000      -65.60200
C          4.52600        8.77800      -66.00300
O          4.19400        8.30500      -67.08600
N          4.52700        8.02600      -64.91100
H          4.83400        8.40900      -64.03300
H          4.26400        7.05800      -64.99700
H          8.21200        6.57300      -67.20400
C          7.19400        6.29900      -67.47900
H          6.50400        6.79600      -66.80300
H          7.06900        5.22100      -67.41100
C          6.92600        6.74300      -68.89600
O          7.84900        7.10100      -69.61700
N          5.65800        6.70800      -69.30100
H          4.95800        6.39700      -68.64100
C          5.21000        6.89700      -70.69200
H          6.07800        6.97100      -71.34700
C          4.41400        5.65500      -71.10800
H          4.03400        5.77700      -72.12300
H          5.07500        4.78700      -71.08400
O          3.33700        5.43600      -70.21300
H          2.49900        5.68100      -70.65900
C          4.36100        8.15300      -70.93600
O          4.15500        8.51900      -72.09100
N          3.86400        8.81000      -69.88100
H          4.10200        8.43700      -68.96800
C          2.84500        9.87300      -69.88000
H          2.63800       10.09800      -68.83400
C          3.37500       11.17300      -70.50800
H          3.71900       10.97700      -71.52500
H          2.53500       11.86400      -70.58000
S          4.68700       12.04000      -69.60300
C          1.48300        9.46100      -70.47700
O          0.46000        9.59500      -69.81000
N          1.45000        8.94900      -71.70900
H          2.33500        8.84000      -72.19000
C          0.28200        8.28900      -72.28500
H         -0.60500        8.88000      -72.05200
C          0.44800        8.24400      -73.80900
H         -0.42900        7.78100      -74.26300
H          0.55600        9.25700      -74.19900
H          1.33400        7.66300      -74.06900
C          0.09500        6.88000      -71.68900
O          1.05900        6.17400      -71.39900
N         -1.14200        6.42800      -71.53200
H         -1.26600        5.50800      -71.14400
H         -1.92900        7.01200      -71.76200
