86
0 1
H          8.78600       -5.98400      -71.32400
C          8.86800       -5.65000      -70.29100
H          8.04800       -6.05900      -69.70300
H          9.81700       -5.98300      -69.87300
C          8.81100       -4.14200      -70.24400
O          9.75200       -3.50000      -69.78300
N          7.70800       -3.56800      -70.72400
H          6.95400       -4.16300      -71.02900
C          7.44900       -2.12800      -70.61000
H          8.40200       -1.60700      -70.67200
C          6.59300       -1.61700      -71.77300
H          7.09400       -1.83600      -72.71700
H          5.62300       -2.11700      -71.76000
O          6.39800       -0.21900      -71.65700
H          7.27400        0.21400      -71.64300
C          6.79300       -1.77200      -69.27300
O          5.84100       -2.42000      -68.84900
N          7.25400       -0.68200      -68.65900
H          8.09300       -0.26300      -69.03900
C          6.57600        0.00700      -67.55500
H          6.42700       -0.69100      -66.73000
C          7.51700        1.13900      -67.09100
H          8.12600        0.76300      -66.26800
H          8.20500        1.37100      -67.89800
S          6.77000        2.71500      -66.57600
C          5.18300        0.54500      -67.95100
O          4.32200        0.70500      -67.08800
N          4.96100        0.83300      -69.24200
H          5.66400        0.53100      -69.90600
C          3.80300        1.54900      -69.80800
H          4.03200        1.70900      -70.86100
C          2.51300        0.69700      -69.79100
H          2.21100        0.50700      -68.76200
C          1.36100        1.41700      -70.50400
H          1.63800        1.64200      -71.53500
H          0.47400        0.78200      -70.50400
H          1.11200        2.34400      -69.98800
C          2.72700       -0.65200      -70.49300
H          3.07700       -0.49500      -71.51400
H          3.46300       -1.24500      -69.94800
H          1.79200       -1.21200      -70.51300
C          3.62200        2.95500      -69.21600
O          3.94300        3.93700      -69.87500
N          3.17500        3.09800      -67.97800
H          3.04700        2.27300      -67.40600
H          3.08700        4.02400      -67.59400
H         12.30800        4.02300      -66.55200
C         12.05500        2.97700      -66.72500
H         11.22700        2.69200      -66.07800
H         12.92300        2.35400      -66.51600
C         11.64800        2.80400      -68.16800
O         11.60500        3.76900      -68.91900
N         11.31300        1.57500      -68.55400
H         11.34100        0.83800      -67.86400
C         10.88500        1.17100      -69.90700
H         11.56800        1.62200      -70.62900
C         11.02100       -0.35500      -70.01400
H         10.67900       -0.69200      -70.99300
H         12.06900       -0.63300      -69.89800
O         10.26000       -0.98000      -68.99300
H         10.21300       -1.93900      -69.19300
C          9.46400        1.64600      -70.28400
O          8.68600        0.90800      -70.89300
N          9.06900        2.84200      -69.84800
H          9.77400        3.43700      -69.42600
C          7.71300        3.37600      -69.97700
H          7.00900        2.59000      -69.70600
C          7.54000        4.51700      -68.96500
H          8.12700        5.37000      -69.31100
H          6.49200        4.82100      -68.94500
S          8.06400        4.14000      -67.26000
C          7.38400        3.80100      -71.42500
O          8.27700        3.91000      -72.26300
N          6.09700        4.01900      -71.71500
H          5.43600        3.96700      -70.94800
C          5.48900        4.29900      -73.02700
H          4.41300        4.35500      -72.85500
C          5.91800        5.69400      -73.50600
H          6.98500        5.70500      -73.73300
H          5.36300        5.95400      -74.40800
H          5.70500        6.43400      -72.73400
C          5.66100        3.21400      -74.11900
O          4.75600        3.00200      -74.91600
N          6.76700        2.48600      -74.17300
H          7.53600        2.70800      -73.55500
H          6.84400        1.78300      -74.88800
