90
0 1
H         36.28300      -16.29800        7.30800
C         36.54400      -17.24500        6.83800
H         36.19400      -17.25700        5.80800
H         36.08400      -18.05600        7.39600
C         38.04600      -17.40600        6.86100
O         38.55800      -18.38200        7.41000
N         38.74500      -16.44100        6.26900
H         38.25000      -15.64600        5.89500
C         40.20100      -16.41000        6.17700
H         40.60700      -17.03200        6.96900
C         40.63500      -17.02600        4.84100
H         41.72400      -17.04500        4.78300
H         40.26000      -18.04700        4.76600
H         40.24300      -16.43400        4.01300
C         40.75200      -14.98400        6.35700
O         40.20400      -14.03100        5.80300
N         41.85900      -14.85000        7.09000
H         42.24900      -15.69000        7.51000
C         42.57500      -13.59500        7.33500
H         42.34100      -12.88800        6.54000
C         42.14400      -12.99600        8.68100
H         42.43800      -13.69400        9.45800
H         42.71100      -12.07900        8.84900
S         40.39400      -12.60400        8.92300
C         44.09500      -13.84400        7.39800
O         44.50100      -14.91200        7.86100
N         44.95200      -12.86900        7.03500
C         44.63600      -11.63900        6.32800
H         44.29500      -10.88600        7.04100
H         43.88800      -11.79500        5.55000
C         45.95300      -11.19900        5.69300
H         45.98600      -10.12000        5.53500
H         46.10200      -11.73200        4.75300
C         46.99100      -11.65700        6.71600
H         47.07900      -10.89900        7.49600
H         47.96200      -11.83500        6.25200
C         46.39200      -12.95000        7.28900
H         46.79500      -13.80500        6.74400
C         46.69100      -13.10400        8.78900
O         46.24700      -12.30200        9.60600
N         47.43600      -14.13000        9.17400
H         47.74300      -14.81200        8.50300
H         47.52700      -14.30600       10.16500
H         37.39500      -21.12100        8.24100
C         36.38300      -20.94600        8.60200
H         35.88400      -21.89900        8.77400
H         35.82800      -20.37000        7.86500
C         36.43200      -20.17600        9.90000
O         35.72300      -20.51200       10.84000
N         37.28600      -19.15700        9.96300
H         37.79700      -18.91800        9.12000
C         37.44900      -18.27400       11.12800
H         36.45900      -17.99800       11.49000
C         38.15700      -19.03600       12.26800
H         38.18500      -18.40500       13.15800
H         37.57400      -19.92400       12.51600
O         39.47900      -19.43600       11.94000
H         39.74200      -20.10800       12.58100
C         38.15000      -16.96400       10.71400
O         37.83100      -16.40400        9.66900
N         39.09200      -16.44800       11.50600
H         39.33400      -16.94700       12.35000
C         39.98800      -15.36000       11.11800
H         40.18300      -15.42600       10.04500
C         39.30800      -14.01500       11.40100
H         38.35900      -13.98900       10.86200
H         39.08600      -13.96300       12.46800
S         40.23600      -12.52100       10.95400
C         41.31600      -15.53300       11.86700
O         41.31900      -15.69200       13.08600
N         42.42800      -15.58800       11.13200
H         42.32400      -15.52500       10.12600
C         43.71200      -16.12900       11.60100
H         43.61600      -16.38400       12.65700
C         44.03600      -17.43900       10.84500
H         44.45300      -17.19900        9.86500
H         44.81400      -17.95900       11.40500
C         42.84600      -18.41200       10.66500
H         43.24300      -19.40400       10.44800
H         42.28700      -18.47800       11.59900
C         41.89500      -18.04100        9.52100
O         42.16400      -17.17300        8.70700
N         40.72500      -18.63300        9.44200
H         40.39800      -19.22900       10.19200
H         40.11900      -18.40200        8.66100
C         44.86600      -15.10800       11.51800
O         46.03900      -15.46700       11.52400
N         44.55900      -13.82100       11.41400
H         45.30500      -13.15900       11.24300
H         43.59800      -13.53000       11.44000
