90
0 1
H         30.81000      -21.31300       10.68200
C         31.63900      -21.89100       11.08900
H         32.39200      -22.04000       10.31800
H         31.27200      -22.85200       11.44500
C         32.24700      -21.12700       12.24100
O         31.80100      -20.03200       12.55700
N         33.27200      -21.70300       12.86700
H         33.57600      -22.60600       12.54400
C         34.00900      -21.09900       13.98000
H         33.28900      -20.67100       14.68000
C         34.76800      -22.21600       14.71300
H         34.06600      -22.96700       15.07600
H         35.49000      -22.68600       14.04300
H         35.30100      -21.79300       15.56700
C         34.92500      -19.94500       13.51100
O         36.14800      -20.09400       13.44800
N         34.31900      -18.81500       13.14200
H         33.30500      -18.79200       13.19000
C         34.98200      -17.62300       12.61200
H         36.05600      -17.79100       12.61500
C         34.53100      -17.39900       11.16100
H         33.45400      -17.22300       11.16800
H         35.00700      -16.49300       10.78700
S         34.86300      -18.73700        9.98300
C         34.65100      -16.36600       13.44600
O         33.50400      -16.22100       13.86900
N         35.58800      -15.40900       13.60500
C         35.31900      -14.15000       14.28800
H         34.80300      -14.31700       15.23500
H         34.71500      -13.51200       13.64200
C         36.68000      -13.50000       14.53500
H         37.08000      -13.83700       15.49300
H         36.62100      -12.41200       14.50300
C         37.53100      -14.05900       13.39500
H         38.59600      -14.02100       13.62700
H         37.32300      -13.50200       12.47900
C         37.00900      -15.49200       13.25100
H         37.13200      -15.81200       12.21600
C         37.77900      -16.46000       14.16700
O         37.31700      -16.85100       15.23100
N         38.97800      -16.85500       13.77300
H         39.34400      -16.54300       12.88200
H         39.49700      -17.47100       14.37600
H         43.49300      -18.57200        3.43300
C         43.73500      -19.56400        3.81000
H         44.62700      -19.51900        4.43100
H         43.90700      -20.24000        2.97300
C         42.57700      -20.08500        4.62800
O         42.00600      -21.11700        4.30500
N         42.23200      -19.37300        5.69800
H         42.73000      -18.51700        5.89700
C         41.09600      -19.69200        6.57600
H         40.26100      -20.03500        5.96400
C         41.47400      -20.81600        7.54900
H         40.57800      -21.14400        8.07300
H         41.87400      -21.66900        6.99700
O         42.42900      -20.36300        8.49100
H         43.30300      -20.45600        8.10000
C         40.64900      -18.45100        7.35800
O         41.40700      -17.48800        7.48000
N         39.43900      -18.46500        7.92900
H         38.87000      -19.29600        7.85900
C         38.97100      -17.37800        8.80200
H         39.19300      -16.43000        8.31000
C         37.44900      -17.47500        8.96200
H         37.10100      -16.56200        9.44500
H         36.98600      -17.52900        7.97600
S         36.88900      -18.88000        9.95300
C         39.68700      -17.34600       10.17200
O         39.52000      -16.39200       10.93000
N         40.47700      -18.37700       10.49300
H         40.49500      -19.17500        9.86900
C         41.37200      -18.44900       11.65100
H         40.97500      -17.82300       12.44600
C         41.41900      -19.89800       12.17400
H         41.87700      -20.55000       11.42800
H         42.06200      -19.91100       13.05500
C         40.04600      -20.46300       12.59700
H         40.21700      -21.28200       13.29500
H         39.48300      -19.69600       13.12800
C         39.18700      -21.01800       11.45800
O         39.57600      -21.11500       10.30400
N         37.95700      -21.38500       11.72100
H         37.51400      -21.10200       12.59200
H         37.41100      -21.68600       10.93800
C         42.78800      -17.91100       11.35900
O         43.60900      -17.81300       12.26100
N         43.11000      -17.53600       10.12500
H         42.44000      -17.61700        9.37300
H         44.03400      -17.17400        9.96500
