101
0 1
H         29.09900       20.57500       49.52000
C         29.38000       20.92500       50.51200
H         28.51100       21.34300       51.01600
H         30.14900       21.68900       50.42200
C         29.89100       19.75200       51.31400
O         29.09600       18.96700       51.81400
N         31.21600       19.63600       51.43500
H         31.76100       20.30600       50.90800
C         31.97500       18.54300       52.08900
H         33.02800       18.80900       52.00100
C         31.67500       18.44200       53.60700
H         30.64100       18.11700       53.72900
C         32.55700       17.36700       54.26800
H         32.38700       17.35600       55.34500
H         32.30700       16.38000       53.87700
H         33.61100       17.56300       54.07200
C         31.81500       19.78800       54.35800
H         31.56900       19.62400       55.40800
H         31.07700       20.49100       53.97100
C         33.19800       20.45100       54.28800
H         33.45600       20.68400       53.25500
H         33.17800       21.38000       54.85800
H         33.95700       19.79700       54.71700
C         31.85200       17.19900       51.35400
O         32.86300       16.63300       50.95300
N         30.63400       16.74300       51.05500
H         29.84200       17.26900       51.41500
C         30.36800       15.77200       49.98600
H         31.15000       15.01200       50.00900
C         29.03000       15.07600       50.27000
H         28.87100       14.32200       49.49700
H         29.09500       14.55800       51.22800
S         27.58500       16.17000       50.30400
C         30.41500       16.41400       48.57600
O         29.99800       15.80000       47.59500
N         30.88700       17.66000       48.46300
H         31.23400       18.11100       49.29600
C         30.99300       18.42400       47.22200
H         31.59600       17.86800       46.50300
H         30.00000       18.56600       46.80600
C         31.62200       19.80400       47.43300
O         31.88700       20.22100       48.55900
N         31.86200       20.53500       46.35500
H         31.63900       20.16900       45.43700
H         32.28000       21.44300       46.47000
H         21.72600       19.15500       45.54200
C         21.39200       19.66200       46.44700
H         20.92400       18.95100       47.12500
H         20.67400       20.43600       46.18000
C         22.57800       20.30400       47.12500
O         22.62800       21.52300       47.24600
N         23.53800       19.47900       47.54500
H         23.39400       18.49700       47.38900
C         24.75800       19.91500       48.25900
H         24.95900       20.95100       47.98600
C         24.50900       19.90600       49.78500
H         23.64800       20.54400       49.98400
C         24.19600       18.51200       50.34800
H         25.05400       17.85200       50.23400
H         23.96500       18.59600       51.41000
H         23.33000       18.08300       49.84600
C         25.69300       20.48000       50.56800
H         26.55700       19.81700       50.49900
H         25.95800       21.46100       50.17100
H         25.42100       20.59000       51.61800
C         26.01600       19.13000       47.86200
O         27.10300       19.70200       47.79800
N         25.88600       17.84200       47.52500
H         24.98900       17.40500       47.63300
C         27.00900       16.97800       47.14300
H         27.85900       17.25800       47.76300
C         26.67700       15.51500       47.47100
H         25.88600       15.16800       46.80500
H         27.56500       14.91500       47.26200
S         26.17600       15.20400       49.18800
C         27.47400       17.18200       45.68800
O         27.47400       16.25800       44.87500
N         27.85400       18.41600       45.34900
H         27.76300       19.13400       46.05900
C         28.44500       18.80300       44.06400
H         27.87200       18.32800       43.26600
C         28.32000       20.32700       43.89200
H         28.96100       20.82100       44.62300
H         28.68400       20.59900       42.90000
C         26.90400       20.85400       44.04700
C         26.53700       21.55900       45.21100
H         27.26700       21.74400       45.98800
C         25.21600       22.01800       45.37200
H         24.93200       22.56000       46.26100
C         24.25600       21.76900       44.36900
O         22.97100       22.16600       44.54700
H         22.77500       22.27700       45.48900
C         24.62500       21.07400       43.19900
H         23.88300       20.89400       42.43700
C         25.94900       20.61800       43.03900
H         26.22800       20.08100       42.14300
C         29.90100       18.30800       43.94000
O         30.85400       19.08000       43.98900
N         30.10500       17.00100       43.85300
H         31.04900       16.65600       43.80800
H         29.31500       16.37200       43.91300
