101
0 1
H         22.93600       16.01000       39.31800
C         23.90600       16.08000       39.80900
H         24.50700       16.84300       39.32000
H         24.41000       15.11700       39.75800
C         23.69500       16.45700       41.25600
O         22.56300       16.61800       41.69300
N         24.79000       16.60000       42.00000
H         25.68600       16.47100       41.55900
C         24.78700       16.98000       43.42000
H         23.95900       17.67500       43.56900
C         24.52100       15.74600       44.32000
H         23.58300       15.29800       43.98700
C         25.62200       14.67300       44.19800
H         26.55700       15.03700       44.62400
H         25.32200       13.76800       44.72600
H         25.78000       14.40900       43.15300
C         24.33600       16.18000       45.79200
H         23.65600       17.03200       45.82200
H         25.29200       16.49300       46.21200
C         23.74100       15.08700       46.68900
H         22.80000       14.73100       46.26900
H         24.43600       14.25300       46.78700
H         23.55200       15.50000       47.68000
C         26.08000       17.71700       43.79100
O         27.16700       17.33700       43.34400
N         25.95600       18.76600       44.60900
H         25.03700       18.99800       44.95300
C         27.07400       19.56100       45.11700
H         27.94100       19.36100       44.50000
C         26.74900       21.05600       44.99300
H         25.87000       21.26400       45.60400
H         27.57800       21.63300       45.40600
S         26.42100       21.66200       43.31300
C         27.42000       19.19900       46.57100
O         26.53100       19.13100       47.41900
N         28.70700       19.02100       46.87800
H         29.38900       19.07600       46.12700
C         29.21600       18.88000       48.24200
H         28.53100       18.26100       48.82200
H         30.18500       18.38200       48.21600
C         29.38900       20.23500       48.93900
O         29.93800       21.17900       48.37600
N         28.94900       20.35100       50.18300
H         29.05600       21.23900       50.64700
H         28.47900       19.58100       50.62900
H         29.19200       15.98100       45.04800
C         29.67900       15.06200       44.72400
H         28.94300       14.26800       44.61900
H         30.42700       14.77000       45.45900
C         30.35000       15.29800       43.39200
O         31.55700       15.12000       43.26800
N         29.56300       15.72400       42.40700
H         28.59300       15.90700       42.63900
C         30.02600       16.13200       41.05800
H         31.01800       15.71200       40.89200
C         29.10500       15.56900       39.95500
H         29.46300       15.91800       38.98700
C         29.15200       14.03600       39.92900
H         30.18300       13.70500       39.79900
H         28.75900       13.62200       40.85700
H         28.56000       13.66500       39.09200
C         27.64300       16.01000       40.11500
H         27.22400       15.58100       41.02300
H         27.58500       17.09800       40.15900
H         27.06700       15.66500       39.25700
C         30.19500       17.65700       40.93300
O         30.34300       18.20000       39.84400
N         30.13000       18.35300       42.06400
H         30.03400       17.82200       42.91900
C         30.13200       19.80100       42.23400
H         30.86600       20.26100       41.57000
C         28.72300       20.30600       41.88200
H         28.60900       20.29000       40.79700
H         27.99800       19.60000       42.28500
S         28.26500       21.95100       42.48700
C         30.51300       20.09500       43.69500
O         30.26500       19.25500       44.56200
N         31.09000       21.26200       43.99600
H         31.22800       21.94900       43.26800
C         31.49800       21.64300       45.35500
H         30.85300       21.13400       46.07000
C         32.94500       21.19500       45.63100
H         33.60700       21.63600       44.88400
H         33.25200       21.57600       46.60600
C         33.11600       19.68700       45.63200
C         32.82400       18.95400       46.80000
H         32.55500       19.47400       47.70800
C         32.85000       17.54600       46.77300
H         32.61500       16.97000       47.65400
C         33.14800       16.87200       45.57200
O         33.08800       15.51700       45.52300
H         32.77900       15.22800       44.65000
C         33.46500       17.60400       44.40800
H         33.69100       17.08000       43.49200
C         33.46500       19.01200       44.44500
H         33.68600       19.57300       43.54800
C         31.32900       23.14800       45.58700
O         31.53300       23.95300       44.68500
N         30.96000       23.54700       46.79600
H         30.75400       22.86100       47.51200
H         30.84900       24.53300       46.96300
