101
0 1
H         32.14200       16.65000       47.15300
C         32.42900       16.68100       46.10400
H         32.85200       15.72100       45.81700
H         33.16100       17.47100       45.94500
C         31.21100       16.95600       45.25500
O         31.20500       17.88800       44.45900
N         30.16800       16.14900       45.42000
H         30.23700       15.42200       46.12700
C         28.90100       16.28000       44.69000
H         29.12200       16.50500       43.64500
C         28.10500       14.94900       44.73000
H         27.87100       14.71800       45.77000
C         26.77900       15.09100       43.95300
H         26.17800       15.90600       44.35300
H         26.98000       15.27900       42.89700
H         26.18600       14.18200       44.04800
C         28.94300       13.78100       44.15300
H         29.89000       13.71500       44.68800
H         29.16500       13.97600       43.10300
C         28.27800       12.40400       44.27300
H         28.99000       11.63400       43.97500
H         27.97600       12.22500       45.30600
H         27.40900       12.33800       43.61900
C         28.11300       17.46300       45.27200
O         27.35900       17.29100       46.22600
N         28.32600       18.67000       44.73600
H         29.07400       18.73100       44.05600
C         27.76200       19.94500       45.21500
H         27.87200       19.99000       46.28800
C         28.60800       21.10500       44.68100
H         28.54300       21.10900       43.59300
H         28.18200       22.04300       45.04000
S         30.36400       21.06600       45.15600
C         26.24500       20.11900       44.98000
O         25.80300       21.08200       44.35200
N         25.43600       19.19600       45.50600
H         25.88300       18.47700       46.07100
C         23.97200       19.24800       45.50600
H         23.62200       19.57800       44.52700
H         23.57500       18.25100       45.69300
C         23.42200       20.20400       46.56800
O         22.78300       19.78300       47.52800
N         23.68400       21.49600       46.43100
H         24.25100       21.80100       45.65100
H         23.33900       22.13700       47.12400
H         29.70900       21.39700       53.67300
C         29.06200       21.95200       52.99300
H         29.66400       22.62200       52.38300
H         28.33500       22.52200       53.56900
C         28.33700       20.97200       52.10200
O         28.53400       19.77200       52.21500
N         27.51700       21.48900       51.18800
H         27.42900       22.49200       51.15700
C         26.63800       20.70500       50.28900
H         26.12900       19.96400       50.90300
C         25.54400       21.60100       49.66700
H         24.88000       20.97800       49.07000
C         24.67700       22.26200       50.74600
H         25.25800       22.96700       51.33900
H         23.84900       22.79100       50.27400
H         24.26300       21.49200       51.39900
C         26.11800       22.69300       48.75000
H         26.77600       23.35900       49.30600
H         26.67400       22.23700       47.93100
H         25.30200       23.27700       48.32500
C         27.36400       19.89600       49.19600
O         26.72200       19.41300       48.26900
N         28.69300       19.77200       49.26200
H         29.13500       20.09700       50.10800
C         29.52500       19.01800       48.32000
H         28.98600       18.85400       47.40000
C         30.77000       19.84000       47.96800
H         31.32900       20.02100       48.88600
H         31.40800       19.25300       47.30600
S         30.44100       21.44300       47.16800
C         29.82200       17.61800       48.86900
O         30.88000       17.36300       49.44100
N         28.84600       16.72100       48.73000
H         28.01200       17.00200       48.22200
C         28.82700       15.41600       49.39200
H         29.03400       15.58700       50.44900
C         27.42000       14.80600       49.28100
H         27.30700       14.38000       48.28300
H         27.33100       13.98900       49.99800
C         26.28700       15.79300       49.52000
C         25.41300       16.12200       48.46500
H         25.52600       15.65000       47.50000
C         24.41900       17.10100       48.64800
H         23.75900       17.36200       47.83800
C         24.30200       17.76600       49.88600
O         23.39200       18.76300       50.04100
H         23.07000       19.08200       49.18100
C         25.15600       17.41500       50.95300
H         25.05500       17.92500       51.89900
C         26.14900       16.43300       50.76900
H         26.82100       16.19400       51.58100
C         29.89900       14.45200       48.85400
O         30.15000       14.36800       47.65400
N         30.52100       13.67000       49.72500
H         31.22300       13.03700       49.37800
H         30.32500       13.74900       50.70800
