106
1 1
H         29.18600        1.22600        1.85700
C         28.19200        1.65900        1.94300
H         27.51800        1.18700        1.23000
H         28.24600        2.72800        1.73800
C         27.67200        1.44500        3.34400
O         26.72300        0.68600        3.53300
N         28.29400        2.10900        4.32000
H         29.10800        2.65500        4.05400
C         27.99000        2.00900        5.76000
H         28.71900        2.62700        6.28400
C         26.61500        2.64200        6.03800
H         26.57300        3.62200        5.56100
H         25.82800        2.01300        5.61900
O         26.40100        2.80100        7.42700
H         25.60300        3.32600        7.56300
C         28.14900        0.58300        6.33600
O         28.56400       -0.34800        5.63800
N         27.83600        0.37800        7.61800
H         27.42500        1.15700        8.12200
C         28.03200       -0.88600        8.33200
H         28.44900       -1.60100        7.64100
C         29.06100       -0.67600        9.44800
H         29.87200       -0.04700        9.07500
H         28.57700       -0.13000       10.26000
S         29.79400       -2.18800       10.13200
C         26.72200       -1.52300        8.82100
O         25.78600       -0.82400        9.19600
N         26.65300       -2.86100        8.77800
H         27.45200       -3.35900        8.39400
C         25.48500       -3.68200        9.15300
H         24.71000       -3.03200        9.56600
C         24.89900       -4.37400        7.89800
H         25.69000       -4.89700        7.35900
H         24.18900       -5.13400        8.22800
C         24.11900       -3.44000        6.94500
H         23.15500       -3.91100        6.74500
H         23.91100       -2.48900        7.43700
C         24.77800       -3.17500        5.57800
H         25.08200       -4.12200        5.12900
H         24.04100       -2.70200        4.92800
C         25.98500       -2.24700        5.71400
H         25.66700       -1.32600        6.21200
H         26.72000       -2.73700        6.35100
N         26.61600       -1.91900        4.41700
H         26.02100       -1.34900        3.82700
H         27.43600       -1.33700        4.58300
H         26.94000       -2.74400        3.91600
C         25.80100       -4.67100       10.29400
O         25.10000       -5.65500       10.49900
N         26.87600       -4.45500       11.03800
H         27.10300       -5.12800       11.75300
H         27.44700       -3.64400       10.87700
H         30.59000       -4.74100        1.56900
C         29.50700       -4.82600        1.48300
H         29.25100       -5.76400        0.99200
H         29.12400       -3.99400        0.89400
C         28.88700       -4.79100        2.85800
O         28.09700       -3.89900        3.16100
N         29.24300       -5.75700        3.70500
H         29.87300       -6.47400        3.38000
C         28.70200       -5.86300        5.06700
H         27.61300       -5.84100        5.00700
C         29.11000       -7.21100        5.67800
H         28.70900       -8.01800        5.06300
H         30.19800       -7.29500        5.67100
C         28.60500       -7.39000        7.09700
C         29.49700       -7.31700        8.18700
H         30.55700       -7.18900        8.01900
C         29.00800       -7.41100        9.50400
H         29.67800       -7.35600       10.34900
C         27.62600       -7.57400        9.73400
O         27.14800       -7.60200       11.00400
H         26.20900       -7.38100       11.02200
C         26.73600       -7.65600        8.64300
H         25.67800       -7.78200        8.82500
C         27.22700       -7.56900        7.32700
H         26.54000       -7.63300        6.49500
C         29.12000       -4.69700        5.98200
O         28.30700       -4.21300        6.77200
N         30.35400       -4.19700        5.85400
H         30.97800       -4.58200        5.16100
C         30.83600       -3.07000        6.64800
H         29.97600       -2.48100        6.92300
C         31.45800       -3.58000        7.95200
H         30.84400       -4.38800        8.35300
H         32.44400       -3.98900        7.72600
S         31.63800       -2.33100        9.25300
C         31.74700       -2.11800        5.86300
O         32.55800       -2.54500        5.04500
N         31.56000       -0.82100        6.10300
H         30.85200       -0.56700        6.77900
C         32.20800        0.31100        5.44700
H         33.28200        0.13400        5.38000
C         31.61400        0.43900        4.02700
H         32.01700       -0.35000        3.39300
H         30.53500        0.30600        4.07400
C         31.86700        1.78200        3.37700
O         31.04200        2.67600        3.43200
N         33.01100        1.97800        2.76500
H         33.13200        2.87400        2.32300
H         33.67900        1.23500        2.66600
C         31.97000        1.56800        6.31400
O         30.99600        1.63700        7.05900
N         32.84000        2.56700        6.24400
H         32.67100        3.38400        6.81000
H         33.63000        2.52100        5.62200
