106
1 1
H         23.26400        0.29100        9.93200
C         24.17400       -0.29800        9.82500
H         24.11100       -1.18000       10.46100
H         25.03400        0.30200       10.11800
C         24.32700       -0.73000        8.38700
O         24.37500       -1.92200        8.10100
N         24.42200        0.23700        7.47600
H         24.41400        1.19900        7.78300
C         24.62900       -0.01200        6.04300
H         23.84000       -0.67000        5.68700
C         24.52500        1.30400        5.25800
H         24.79700        1.13100        4.21600
H         23.49600        1.66300        5.29800
O         25.38200        2.28800        5.81400
H         25.30000        3.09800        5.29700
C         25.96400       -0.71900        5.78600
O         25.97900       -1.87600        5.36100
N         27.07800       -0.06100        6.11200
H         26.96100        0.88700        6.45100
C         28.44600       -0.54100        5.91700
H         28.42200       -1.57700        5.60300
C         29.09100        0.26600        4.78400
H         29.10400        1.32100        5.06100
H         30.12100       -0.06300        4.63500
S         28.16700        0.07300        3.23000
C         29.18900       -0.51100        7.25500
O         29.35800        0.53800        7.87200
N         29.51100       -1.70500        7.75800
H         29.41900       -2.50800        7.14100
C         29.52300       -2.00400        9.20000
H         28.88800       -1.27600        9.70700
C         28.87800       -3.39200        9.40500
H         29.44900       -4.13200        8.84300
H         28.91000       -3.66100       10.46200
C         27.40500       -3.40100        8.93200
H         26.80000       -2.82900        9.63800
H         27.32200       -2.91800        7.96000
C         26.82700       -4.81800        8.80200
H         27.50000       -5.43700        8.20800
H         26.74600       -5.25600        9.79800
C         25.43800       -4.80900        8.14200
H         25.00900       -5.81100        8.22600
H         24.78900       -4.11600        8.68700
N         25.49700       -4.42500        6.71000
H         25.83800       -3.47900        6.57300
H         26.07000       -5.08000        6.18600
H         24.58500       -4.46600        6.26100
C         30.90800       -1.82000        9.83700
O         31.43200       -2.69500       10.51600
N         31.53900       -0.68500        9.58500
H         31.08200        0.01700        9.02000
H         32.46200       -0.54600        9.96100
H         26.91900       -9.54800        4.35800
C         26.54700       -8.58200        4.02100
H         25.46600       -8.54500        4.15500
H         26.78400       -8.44200        2.96800
C         27.18400       -7.48300        4.83500
O         26.49300       -6.71500        5.49800
N         28.51100       -7.37800        4.78500
H         29.02900       -8.05100        4.24100
C         29.25200       -6.36800        5.55500
H         28.99100       -6.48400        6.60700
C         30.75800       -6.62300        5.41300
H         30.97600       -7.65000        5.71300
H         31.04700       -6.51200        4.36700
C         31.58900       -5.69000        6.27000
C         31.60600       -5.87000        7.66700
H         31.07200       -6.69500        8.11700
C         32.31200       -4.97000        8.48500
H         32.31700       -5.09700        9.55800
C         33.01100       -3.89100        7.90500
O         33.65600       -3.00100        8.69900
H         33.33000       -3.06500        9.60500
C         33.00600       -3.71800        6.50500
H         33.55300       -2.89200        6.07600
C         32.29300       -4.61600        5.68700
H         32.29000       -4.47800        4.61500
C         28.89800       -4.92000        5.15900
O         28.86900       -4.02900        6.01000
N         28.56400       -4.68900        3.88700
H         28.54200       -5.46900        3.24600
C         28.19300       -3.38500        3.34600
H         27.81500       -2.77200        4.15100
C         29.46100       -2.71700        2.80000
H         30.16700       -2.61900        3.62500
H         29.90900       -3.38900        2.06600
S         29.31700       -1.08900        2.01200
C         27.05400       -3.51900        2.33000
O         27.10900       -4.37600        1.45000
N         26.00500       -2.70700        2.48700
H         26.01700       -2.05600        3.26400
C         24.79200       -2.75500        1.67000
H         25.06800       -3.09600        0.67000
C         23.80900       -3.79200        2.26200
H         22.87800       -3.76700        1.69600
H         24.24100       -4.78500        2.13600
C         23.47000       -3.62700        3.74100
O         23.76600       -4.46700        4.57400
N         22.84100       -2.55000        4.14200
H         22.59400       -2.50000        5.11300
H         22.74100       -1.76400        3.51600
C         24.15300       -1.36300        1.50900
O         24.02700       -0.60500        2.46700
N         23.68300       -1.02700        0.31600
H         23.77900       -1.65200       -0.46800
H         23.25900       -0.11900        0.20500
