109
0 1
H         -5.11500      -26.56400      -17.38600
C         -4.02700      -26.58200      -17.36400
H         -3.67100      -26.00500      -16.51100
H         -3.62800      -26.15600      -18.28300
C         -3.55200      -28.00800      -17.22200
O         -2.87600      -28.33900      -16.25700
N         -3.90200      -28.85600      -18.18800
H         -4.45200      -28.50300      -18.95300
C         -3.51100      -30.26800      -18.21600
H         -3.68400      -30.69600      -17.22500
C         -4.42400      -31.00700      -19.21400
H         -5.46700      -30.88100      -18.92700
H         -4.28400      -30.58800      -20.21100
C         -4.13200      -32.49800      -19.25900
O         -3.87900      -33.13600      -18.25100
N         -4.14800      -33.09800      -20.42300
H         -4.35300      -32.57400      -21.26600
H         -3.88300      -34.06500      -20.46300
C         -2.00800      -30.44300      -18.52900
O         -1.63000      -30.67800      -19.67800
N         -1.15600      -30.31100      -17.50800
H         -1.53500      -30.04900      -16.60500
C          0.28200      -30.57700      -17.57900
H          0.49500      -31.02200      -18.54900
C          1.07900      -29.27000      -17.47400
H          0.58400      -28.49100      -18.05500
H          1.10000      -28.95400      -16.43000
S          2.78200      -29.44900      -18.07600
C          0.72200      -31.59400      -16.51600
O          0.20800      -31.59200      -15.39700
N          1.65800      -32.47500      -16.86700
H          1.99900      -32.44500      -17.82200
C          2.04100      -33.64400      -16.06900
H          1.37300      -33.72600      -15.21200
C          1.84900      -34.90200      -16.93100
H          2.58600      -34.87800      -17.73400
H          2.05500      -35.78000      -16.32000
C          0.49600      -35.08500      -17.56500
C         -0.67400      -34.55700      -17.13000
H         -0.79200      -33.92200      -16.26100
N         -1.69300      -34.90300      -17.99200
H         -2.63200      -34.51000      -17.92200
C         -1.24800      -35.72700      -19.00100
C         -1.89000      -36.35100      -20.08000
H         -2.95200      -36.23100      -20.22800
C         -1.13100      -37.13900      -20.96300
H         -1.60900      -37.62500      -21.80200
C          0.25300      -37.28300      -20.75900
H          0.83500      -37.88300      -21.44500
C          0.88700      -36.64900      -19.67100
H          1.95100      -36.76200      -19.52800
C          0.15300      -35.85900      -18.75800
C          3.47100      -33.53800      -15.52000
O          4.34800      -32.91000      -16.10600
N          3.74700      -34.18200      -14.39400
H          3.02800      -34.69900      -13.91600
H          4.68200      -34.11900      -14.02700
H         -4.25500      -30.05700      -25.47000
C         -4.47100      -29.87400      -24.41900
H         -5.54700      -29.91900      -24.25500
H         -4.09900      -28.89200      -24.13200
C         -3.79800      -30.93000      -23.57800
O         -4.46300      -31.67500      -22.86800
N         -2.47400      -31.01400      -23.66600
H         -1.99400      -30.36900      -24.27800
C         -1.60900      -31.91600      -22.88000
H         -1.98200      -31.98000      -21.85800
C         -1.60700      -33.33500      -23.48000
H         -1.46300      -33.26800      -24.55900
C         -0.55300      -34.28000      -22.90300
H         -0.72200      -35.28600      -23.28600
H          0.44500      -33.96400      -23.20500
H         -0.62000      -34.29800      -21.81500
O         -2.85100      -33.94100      -23.21700
H         -3.53700      -33.26900      -23.33800
C         -0.19800      -31.32600      -22.82300
O          0.23100      -30.65700      -23.76100
N          0.51300      -31.54000      -21.71700
H          0.09600      -32.09400      -20.97900
C          1.80100      -30.92000      -21.40600
H          2.38800      -30.81300      -22.32000
C          1.49100      -29.51900      -20.85400
H          1.20100      -28.90200      -21.70600
H          0.61100      -29.58200      -20.21700
S          2.75200      -28.59600      -19.93300
C          2.59600      -31.81600      -20.43900
O          2.01200      -32.61900      -19.71200
N          3.92400      -31.69100      -20.42500
H          4.35300      -30.97300      -20.99100
C          4.83400      -32.51800      -19.62000
H          4.29700      -32.84800      -18.73000
C          5.24700      -33.78300      -20.42100
H          4.33300      -34.33200      -20.66000
C          5.93000      -33.44800      -21.76100
H          5.28600      -32.81900      -22.37400
H          6.87500      -32.93000      -21.58900
H          6.12900      -34.36500      -22.31600
C          6.17500      -34.74600      -19.64700
H          6.50600      -35.53400      -20.32400
H          7.06200      -34.21600      -19.29900
C          5.49300      -35.43100      -18.46000
H          6.18100      -36.15000      -18.01400
H          5.22200      -34.69700      -17.70700
H          4.60000      -35.95800      -18.79700
C          6.02400      -31.67400      -19.14300
O          6.60600      -30.91200      -19.90800
N          6.39800      -31.78100      -17.87700
H          7.16300      -31.21400      -17.55500
H          5.85100      -32.34100      -17.23400
