112
0 1
H         12.14900       29.84500      -18.44000
C         11.60900       28.90000      -18.42500
H         12.27800       28.08900      -18.71100
H         10.77000       28.94700      -19.11700
C         11.08900       28.64600      -17.03000
O          9.88200       28.55800      -16.83400
N         12.01000       28.54700      -16.07100
H         12.97100       28.62200      -16.36600
C         11.78200       28.26800      -14.64300
H         12.76800       28.16700      -14.18800
C         11.10800       29.46000      -13.93900
H         10.07800       29.55200      -14.28600
H         11.07000       29.25500      -12.86800
C         11.81200       30.78700      -14.15300
C         11.34000       31.69000      -15.12600
H         10.46700       31.44400      -15.71400
C         12.00400       32.91200      -15.33700
H         11.63900       33.60500      -16.08200
C         13.14100       33.23500      -14.57500
H         13.64900       34.17600      -14.73500
C         13.61400       32.33600      -13.60300
H         14.48700       32.58600      -13.01600
C         12.95100       31.11400      -13.39200
H         13.31800       30.42600      -12.64300
C         11.08400       26.92400      -14.38300
O         11.74300       25.95700      -14.01700
N          9.78100       26.81900      -14.65200
H          9.34200       27.62900      -15.07500
C          9.06100       25.54200      -14.73000
H          9.52500       24.85100      -14.02500
C          7.61800       25.75300      -14.25100
H          7.65200       26.27700      -13.29500
H          7.09000       26.38500      -14.96600
S          6.67000       24.22900      -14.00400
C          9.21100       24.89400      -16.13100
O          8.26400       24.35500      -16.70300
N         10.40700       25.01500      -16.71700
H         11.13700       25.46300      -16.17500
C         10.81600       24.49000      -18.02300
H         10.50800       23.44600      -18.09700
C         10.13500       25.29500      -19.14400
H          9.06100       25.16500      -19.05800
H         10.35600       26.35300      -19.01300
C         10.55400       24.88600      -20.56200
H          9.98500       25.48600      -21.27300
H         11.60600       25.13200      -20.70300
S         10.31600       23.13400      -20.97700
C          8.50600       23.01600      -20.92700
H          8.15200       23.14900      -19.90400
H          8.06700       23.77800      -21.57200
H          8.19800       22.03200      -21.28100
C         12.34400       24.57000      -18.14800
O         12.95800       25.53300      -17.69800
N         12.97800       23.59100      -18.77900
H         12.45800       22.83000      -19.18600
H         13.98000       23.64700      -18.86200
H          7.05900       26.27500      -18.36500
C          6.43100       26.01200      -19.21500
H          7.02300       25.55000      -20.00000
H          5.95000       26.90500      -19.60800
C          5.36700       25.04300      -18.77100
O          4.19300       25.27700      -19.02800
N          5.75300       23.96500      -18.08900
H          6.73100       23.87100      -17.83600
C          4.81200       22.92100      -17.65400
H          4.29300       22.53200      -18.53100
C          5.58400       21.76700      -16.99400
H          6.04900       22.13300      -16.07800
H          4.86800       20.99600      -16.70600
C          6.64700       21.12000      -17.86500
C          8.00900       21.21900      -17.51900
H          8.30300       21.76300      -16.63300
C          8.98900       20.60100      -18.31500
H         10.03200       20.67300      -18.04300
C          8.61100       19.87600      -19.45900
H          9.36400       19.39600      -20.06900
C          7.25300       19.77300      -19.80700
H          6.96100       19.21100      -20.68300
C          6.27300       20.39400      -19.01200
H          5.22900       20.30300      -19.27700
C          3.73400       23.46300      -16.70100
O          2.57100       23.08600      -16.79900
N          4.10400       24.40900      -15.83400
H          5.08300       24.65000      -15.79900
C          3.20000       25.11800      -14.92600
H          2.54300       24.39000      -14.44700
C          4.03500       25.81400      -13.83900
H          4.64400       26.58900      -14.29900
H          3.33700       26.31700      -13.16700
S          5.11300       24.78000      -12.80600
C          2.29900       26.15900      -15.62900
O          1.50800       26.82100      -14.96200
N          2.44500       26.35300      -16.94600
H          3.11700       25.77800      -17.44100
C          1.80400       27.42200      -17.72500
H          1.01500       27.87000      -17.11900
C          2.82700       28.53100      -18.05100
H          3.54800       28.16200      -18.78100
H          2.28600       29.36200      -18.50600
C          3.57700       29.07500      -16.82300
H          3.77200       30.13600      -16.98400
H          2.92600       28.99900      -15.95100
S          5.16700       28.27200      -16.44600
C          6.25400       29.16000      -17.59400
H          6.27500       30.21800      -17.33100
H          7.26400       28.75600      -17.52600
H          5.88600       29.05000      -18.61400
C          1.11100       26.91000      -19.00300
O          0.63600       27.69600      -19.81400
N          1.03200       25.60200      -19.21900
H          1.44200       24.95700      -18.56200
H          0.58800       25.28300      -20.06300
