112
0 1
H         11.02900       25.96200      -24.40800
C         12.03200       26.11200      -24.01200
H         12.70800       26.38900      -24.81800
H         12.38600       25.19800      -23.53800
C         11.99800       27.21900      -22.98700
O         12.34600       27.00600      -21.83000
N         11.58500       28.40900      -23.41500
H         11.27700       28.49900      -24.37200
C         11.52200       29.61000      -22.58000
H         11.30000       29.30700      -21.56000
C         12.89300       30.30700      -22.58100
H         13.67200       29.55500      -22.44300
H         13.06000       30.77000      -23.55500
C         13.05900       31.35400      -21.49500
C         12.64300       32.68100      -21.70800
H         12.22600       32.97100      -22.65900
C         12.76200       33.63300      -20.68000
H         12.42200       34.64700      -20.84300
C         13.32200       33.26700      -19.44300
H         13.41800       34.00100      -18.65500
C         13.76300       31.94800      -19.23500
H         14.20400       31.66400      -18.28900
C         13.62800       30.99500      -20.25900
H         13.95900       29.98200      -20.09300
C         10.40700       30.55100      -23.06100
O         10.22300       30.71900      -24.26700
N          9.68200       31.19000      -22.13900
H          9.90700       31.03200      -21.16200
C          8.66700       32.20500      -22.44200
H          8.07100       31.86600      -23.29100
C          7.71600       32.37200      -21.24600
H          8.29400       32.44900      -20.32300
H          7.19200       33.32000      -21.37500
S          6.42600       31.10700      -21.05400
C          9.32200       33.53900      -22.85900
O          9.30800       34.52200      -22.11900
N          9.94900       33.55900      -24.03700
H          9.94900       32.70300      -24.58100
C         10.60100       34.74400      -24.60000
H         11.20600       35.20000      -23.81500
C         11.54300       34.30700      -25.73500
H         12.29600       33.63000      -25.33000
H         10.96800       33.76600      -26.48800
C         12.25500       35.47900      -26.42200
H         12.90000       35.07300      -27.20100
H         11.51300       36.11400      -26.90600
S         13.27000       36.49900      -25.31700
C         13.90800       37.69900      -26.51500
H         14.47900       37.18000      -27.28600
H         13.07800       38.23500      -26.97700
H         14.55700       38.41100      -26.00500
C          9.57200       35.78600      -25.06800
O          8.63700       35.47400      -25.79500
N          9.75000       37.04700      -24.69900
H          9.07400       37.72800      -24.99900
H         10.52300       37.29300      -24.10300
H         11.57000       31.64700      -16.90700
C         10.62200       31.37600      -17.36700
H         10.21600       32.23900      -17.89300
H          9.91700       31.04600      -16.60600
C         10.84800       30.26000      -18.35800
O         10.51500       30.40600      -19.52800
N         11.40900       29.14700      -17.88800
H         11.64600       29.12600      -16.91000
C         11.77700       27.96300      -18.68300
H         12.27400       28.30800      -19.59000
C         12.80300       27.12500      -17.90100
H         12.34900       26.77300      -16.97300
H         13.06100       26.24600      -18.49400
C         14.08200       27.87700      -17.58400
C         14.27400       28.46500      -16.31800
H         13.52500       28.35200      -15.54800
C         15.44400       29.19700      -16.05100
H         15.59300       29.64500      -15.07800
C         16.42600       29.34300      -17.04700
H         17.32700       29.90400      -16.84100
C         16.24100       28.75000      -18.30800
H         16.99800       28.85800      -19.07300
C         15.07200       28.01500      -18.57500
H         14.92900       27.56300      -19.54700
C         10.56200       27.13600      -19.15100
O         10.36000       25.99100      -18.75000
N          9.73200       27.74500      -19.99600
H          9.92600       28.72100      -20.18000
C          8.54000       27.18300      -20.63000
H          7.94000       26.69600      -19.85900
C          7.72400       28.35000      -21.20300
H          8.29600       28.82500      -21.99900
H          6.81000       27.95500      -21.64700
S          7.26900       29.60400      -19.97200
C          8.87300       26.11300      -21.69300
O          8.58000       26.27800      -22.87800
N          9.52300       25.02500      -21.27800
H          9.77500       24.98100      -20.29600
C          9.82000       23.86400      -22.11700
H         10.16500       24.22400      -23.08500
C         10.96200       23.06100      -21.47300
H         11.84200       23.70100      -21.39300
H         10.66500       22.76400      -20.46600
C         11.34300       21.79900      -22.25600
H         12.16500       21.31200      -21.73200
H         10.49700       21.11000      -22.25500
S         11.85700       22.09300      -23.97200
C         12.22800       20.39100      -24.47100
H         13.01800       19.98700      -23.83700
H         11.33300       19.77600      -24.37400
H         12.56100       20.38200      -25.50900
C          8.56600       23.00900      -22.36400
O          7.80800       22.70700      -21.45000
N          8.34600       22.56900      -23.59500
H          7.52200       22.01400      -23.76000
H          8.97900       22.81200      -24.33900
