112
0 1
H         12.08800       25.99600      -26.98300
C         11.82100       25.02900      -26.55900
H         12.34700       24.23700      -27.08900
H         10.74700       24.88000      -26.64700
C         12.21600       24.99900      -25.10300
O         13.00900       24.16200      -24.69200
N         11.63500       25.88800      -24.30100
H         10.94400       26.50500      -24.71200
C         11.91100       26.03200      -22.86000
H         12.99100       25.95700      -22.72600
C         11.49100       27.45100      -22.43500
H         11.91100       28.16600      -23.14500
H         10.40700       27.52800      -22.50600
C         11.93300       27.87600      -21.04500
C         10.99700       27.96800      -19.99600
H          9.96000       27.72100      -20.17600
C         11.41200       28.35000      -18.70800
H         10.69100       28.40900      -17.90500
C         12.76400       28.64900      -18.46500
H         13.08200       28.94400      -17.47500
C         13.70000       28.56700      -19.51100
H         14.73900       28.80200      -19.32400
C         13.28600       28.18200      -20.79900
H         14.00800       28.12400      -21.60000
C         11.29200       24.90400      -21.99400
O         10.84700       25.12200      -20.87200
N         11.21600       23.67400      -22.51000
H         11.68200       23.51300      -23.39600
C         10.34200       22.61300      -21.99000
H          9.31400       22.95800      -22.04600
C         10.47400       21.39300      -22.90400
H         11.50300       21.03100      -22.85100
H          9.82600       20.60100      -22.52500
S         10.06500       21.67100      -24.65200
C         10.59300       22.23100      -20.51900
O          9.67200       21.78700      -19.83500
N         11.81900       22.43700      -20.03500
H         12.50900       22.78100      -20.68500
C         12.26800       22.19000      -18.66300
H         11.96400       21.18500      -18.36800
C         13.80600       22.27500      -18.61800
H         14.11900       23.29600      -18.83900
H         14.12500       22.05000      -17.59900
C         14.54300       21.30300      -19.55800
H         15.59600       21.30500      -19.27700
H         14.16200       20.29800      -19.37000
S         14.45900       21.61200      -21.35400
C         15.27200       23.22700      -21.49700
H         16.28000       23.16900      -21.08500
H         15.33000       23.50700      -22.55000
H         14.70000       23.98400      -20.96100
C         11.67900       23.16700      -17.62700
O         11.70400       22.88500      -16.43600
N         11.15800       24.32100      -18.02900
H         11.12500       24.55800      -19.01200
H         10.78100       24.94300      -17.33400
H          7.49300       20.51600      -21.10900
C          6.45600       20.78900      -20.92400
H          6.19900       20.56100      -19.89100
H          5.80300       20.23500      -21.59700
C          6.27600       22.26800      -21.16300
O          5.48000       22.66900      -22.00500
N          7.04600       23.08700      -20.45300
H          7.71300       22.66100      -19.81900
C          6.98800       24.55900      -20.48000
H          5.93600       24.84800      -20.44800
C          7.65800       25.10600      -19.20800
H          8.72500       24.89500      -19.25800
H          7.54100       26.19100      -19.18500
C          7.10400       24.54100      -17.91300
C          7.76500       23.48500      -17.25500
H          8.67400       23.07000      -17.66400
C          7.24500       22.96300      -16.05800
H          7.76100       22.15800      -15.55300
C          6.05900       23.49000      -15.51700
H          5.66100       23.08900      -14.59500
C          5.39400       24.54000      -16.17300
H          4.48200       24.94600      -15.75700
C          5.91600       25.06500      -17.36900
H          5.40200       25.87300      -17.87100
C          7.57200       25.18900      -21.76500
O          8.16400       26.26600      -21.73800
N          7.44200       24.51300      -22.91100
H          6.86600       23.67800      -22.88300
C          8.21800       24.76500      -24.12900
H          9.27000       24.63500      -23.89700
C          7.83400       23.71000      -25.17100
H          6.78400       23.85400      -25.43200
H          8.42300       23.88000      -26.07300
S          8.04800       21.97400      -24.67900
C          8.06500       26.18200      -24.71300
O          8.96300       26.65100      -25.40900
N          6.95100       26.85600      -24.41800
H          6.30800       26.41800      -23.77400
C          6.64200       28.23200      -24.82100
H          6.96100       28.36100      -25.85600
C          5.11300       28.42700      -24.77200
H          4.87900       29.36800      -25.27100
H          4.63100       27.63300      -25.34200
C          4.49600       28.48400      -23.36000
H          4.93400       29.32900      -22.82900
H          3.43200       28.69700      -23.47000
S          4.65700       27.01400      -22.29600
C          3.68600       25.78500      -23.21100
H          2.66000       26.13800      -23.32300
H          4.12300       25.61700      -24.19500
H          3.68200       24.84400      -22.65900
C          7.36900       29.31600      -23.99900
O          7.30500       30.48800      -24.34600
N          8.04700       28.97900      -22.91000
H          8.08100       28.01500      -22.60300
H          8.51000       29.70600      -22.39100
