102
0 1
H        -49.75600      -46.03400       -8.20600
C        -50.78700      -46.38100       -8.18400
H        -51.45300      -45.53200       -8.04000
H        -51.02900      -46.87800       -9.12200
C        -50.96900      -47.35200       -7.04500
O        -51.43500      -48.47100       -7.25000
N        -50.61000      -46.93800       -5.83000
H        -50.25400      -45.99400       -5.72700
C        -50.71500      -47.74800       -4.60600
H        -50.52300      -48.78200       -4.87900
C        -49.60600      -47.35200       -3.62100
H        -49.63400      -48.04000       -2.77500
H        -48.64100      -47.48000       -4.11300
C        -49.67800      -45.93900       -3.09800
N        -49.66400      -44.77700       -3.87400
C        -49.63800      -43.75800       -3.00100
H        -49.62000      -42.71200       -3.27400
N        -49.64200      -44.21900       -1.74100
H        -49.66300      -43.64600       -0.89600
C        -49.67200      -45.59200       -1.78100
H        -49.65800      -46.26900       -0.93800
C        -52.13500      -47.72900       -4.01000
O        -52.35200      -47.40700       -2.84300
N        -53.13300      -48.01800       -4.84500
H        -52.87100      -48.27300       -5.79100
C        -54.56400      -47.82800       -4.57100
H        -54.67100      -46.90800       -4.00300
C        -55.28100      -47.65200       -5.92000
H        -55.28000      -48.61500       -6.43300
H        -56.32100      -47.37000       -5.74700
S        -54.51300      -46.43200       -7.02600
C        -55.20300      -48.93300       -3.70200
O        -56.40000      -49.19200       -3.80000
N        -54.40900      -49.62900       -2.88700
H        -53.45400      -49.31000       -2.79200
C        -54.73200      -50.94900       -2.32300
H        -55.38800      -51.45300       -3.03200
C        -53.44100      -51.78900       -2.23400
H        -52.89000      -51.46800       -1.34800
H        -53.71100      -52.83600       -2.09300
C        -52.51300      -51.68200       -3.44000
C        -53.03300      -51.63000       -4.75200
H        -54.09500      -51.74000       -4.92200
C        -52.18200      -51.38300       -5.84400
H        -52.58400      -51.29200       -6.84200
C        -50.79500      -51.23900       -5.63600
O        -49.99100      -50.88200       -6.66700
H        -50.44900      -50.26100       -7.24800
C        -50.26300      -51.35700       -4.33600
H        -49.19800      -51.24700       -4.19000
C        -51.12200      -51.56500       -3.24000
H        -50.71300      -51.62000       -2.23900
C        -55.53100      -50.88700       -1.00500
O        -55.27800      -51.62900       -0.06300
N        -56.49300      -49.98000       -0.89900
H        -56.72000      -49.40700       -1.69900
H        -57.01500      -49.93100       -0.04000
H        -51.91500      -40.29200        1.41300
C        -51.11600      -40.61000        0.74700
H        -50.15700      -40.51900        1.25400
H        -51.11400      -39.99600       -0.15200
C        -51.33300      -42.05200        0.35600
O        -50.47000      -42.89000        0.59400
N        -52.47500      -42.33200       -0.26700
H        -53.08500      -41.55700       -0.48400
C        -52.87800      -43.64800       -0.79900
H        -52.02300      -44.32000       -0.80300
C        -53.97100      -44.30200        0.07400
H        -54.82100      -43.62300        0.14700
C        -54.47000      -45.63500       -0.50400
H        -54.97400      -45.47200       -1.45500
H        -53.63300      -46.32100       -0.64400
H        -55.18800      -46.08800        0.18000
C        -53.45100      -44.58200        1.49100
H        -52.57700      -45.23200        1.44800
H        -53.17600      -43.64900        1.98300
H        -54.22800      -45.06200        2.08600
C        -53.34100      -43.46000       -2.24400
O        -53.97900      -42.45400       -2.54700
N        -53.02600      -44.40300       -3.13900
H        -52.49900      -45.20300       -2.80400
C        -53.25700      -44.34100       -4.59400
H        -52.90900      -45.28700       -5.00000
C        -54.77100      -44.26500       -4.86100
H        -55.28600      -44.93900       -4.18000
H        -55.11300      -43.25800       -4.61900
S        -55.34300      -44.63400       -6.54000
C        -52.45700      -43.26100       -5.35500
O        -51.99600      -43.51200       -6.46600
N        -52.23600      -42.09100       -4.75100
H        -52.66600      -41.94800       -3.84400
C        -51.43800      -40.98900       -5.27900
H        -50.70800      -41.38600       -5.98700
C        -52.37400      -40.03300       -6.03400
H        -51.80100      -39.22000       -6.47900
H        -52.88800      -40.57600       -6.82900
H        -53.11400      -39.61900       -5.34800
C        -50.65800      -40.27700       -4.15400
O        -50.88500      -40.50300       -2.96700
N        -49.71300      -39.41500       -4.50300
H        -49.20000      -38.94900       -3.77300
H        -49.52700      -39.23300       -5.47600
