79
0 1
H         11.28000      -55.81200      111.57000
C         10.96100      -55.43600      112.54100
H         11.61600      -55.82800      113.31700
H          9.93500      -55.74300      112.73100
C         11.03900      -53.92700      112.53300
O         11.41800      -53.33300      111.52800
N         10.68000      -53.30500      113.65400
H         10.36900      -53.85100      114.44300
C         10.68600      -51.85100      113.80200
H         11.51200      -51.45100      113.21400
C          9.36600      -51.29500      113.24600
H          9.37600      -50.20500      113.28800
H          9.23500      -51.60500      112.20800
H          8.52700      -51.66500      113.83800
C         10.89000      -51.39900      115.25600
O         10.34100      -51.99400      116.18200
N         11.64100      -50.30900      115.43500
H         12.07600      -49.92800      114.60100
C         11.60800      -49.40900      116.59600
H         12.45600      -48.73600      116.48600
C         10.34300      -48.54200      116.49700
H          9.48200      -49.17900      116.70400
H         10.37300      -47.77200      117.27100
S         10.07500      -47.74200      114.88400
C         11.80100      -50.06000      117.98600
O         11.35500      -49.51000      118.98800
N         12.45700      -51.22400      118.05800
H         12.75600      -51.64500      117.19300
C         12.65800      -51.98300      119.30100
H         13.48900      -52.67400      119.16300
H         12.92300      -51.29200      120.10200
C         11.44600      -52.80000      119.77500
O         11.51300      -53.44600      120.81200
N         10.33900      -52.82500      119.04300
H          9.55600      -53.35800      119.38100
H         10.29300      -52.32000      118.16800
H         12.83800      -39.10500      110.33900
C         13.45200      -39.94800      110.65200
H         13.68700      -39.85500      111.71000
H         14.36900      -39.97000      110.06600
C         12.68000      -41.22600      110.42200
O         11.55200      -41.18800      109.95000
N         13.29200      -42.36000      110.75500
H         14.21400      -42.31100      111.16200
C         12.69400      -43.69200      110.64100
H         11.62600      -43.62200      110.85900
C         12.86500      -44.19400      109.19000
H         12.29500      -43.55900      108.51300
H         13.91800      -44.13100      108.91700
C         12.38900      -45.62700      109.01200
O         11.35400      -46.02500      109.52100
N         13.17600      -46.46800      108.38700
H         12.91500      -47.45200      108.39200
H         14.04400      -46.16600      107.98900
C         13.32400      -44.66200      111.66100
O         14.48600      -44.50800      112.03200
N         12.57300      -45.68900      112.06400
H         11.62900      -45.73800      111.70400
C         13.06200      -46.82600      112.85000
H         14.13500      -46.91400      112.67400
C         12.88100      -46.52600      114.34700
H         13.22200      -47.38400      114.92400
H         13.54600      -45.69600      114.58900
S         11.21800      -46.05400      114.91200
C         12.47800      -48.19100      112.42000
O         12.74700      -49.19700      113.07600
N         11.70600      -48.25900      111.32900
H         11.54400      -47.41500      110.79200
C         11.26200      -49.50600      110.70400
H         11.15200      -50.27000      111.46900
C          9.88600      -49.27400      110.07000
H          9.18100      -48.93200      110.82800
H          9.96000      -48.52200      109.28300
H          9.51800      -50.20600      109.63800
C         12.28400      -50.02900      109.67600
O         12.88000      -49.25900      108.92500
N         12.47800      -51.33900      109.59800
H         11.99900      -51.97200      110.22700
H         13.13500      -51.68600      108.92000
