96
-2 1
H        -13.84000        8.29900        6.78100
C        -13.89800        7.88000        5.77800
H        -14.02500        8.67600        5.04600
H        -14.73100        7.18200        5.71800
C        -12.61800        7.13900        5.48100
O        -11.94000        7.44400        4.50900
N        -12.29900        6.17100        6.33100
H        -12.89000        6.04700        7.14900
C        -11.06600        5.37200        6.29000
H        -10.56500        5.54100        5.33600
C        -10.09200        5.84000        7.40000
H         -9.38300        5.03400        7.59100
H         -9.51400        6.67400        6.99800
C        -10.66900        6.30900        8.75800
H         -9.84700        6.40300        9.47100
H        -11.09000        7.30900        8.62600
C        -11.75500        5.39500        9.34000
O        -11.42800        4.44900       10.08700
O        -12.93800        5.54600        8.95500
C        -11.31800        3.85300        6.34800
O        -10.70600        3.11200        5.58600
N        -12.21400        3.39700        7.22500
H        -12.66500        4.09300        7.81100
C        -12.57600        1.99900        7.48200
H        -12.86100        1.51000        6.54900
C        -11.35600        1.27800        8.08300
H        -10.56600        1.24700        7.33300
H        -10.98900        1.87300        8.92100
S        -11.64800       -0.40700        8.69300
C        -13.76500        1.92700        8.46200
O        -14.74200        1.22500        8.21400
N        -13.70300        2.69400        9.55700
H        -12.89000        3.29500        9.67400
C        -14.74500        2.78000       10.58600
H        -15.16700        1.78600       10.75100
C        -14.09900        3.27000       11.89500
H        -13.66500        4.25700       11.73900
H        -14.87200        3.35400       12.65900
C        -13.02600        2.33500       12.42600
O        -13.28800        1.43400       13.20400
N        -11.78500        2.53000       12.05000
H        -11.57100        3.27000       11.37400
H        -11.10000        1.87600       12.36700
C        -15.90800        3.71000       10.18500
O        -17.03700        3.53900       10.63700
N        -15.66600        4.71800        9.35800
H        -16.42400        5.32100        9.09600
H        -14.70900        4.91200        9.07600
H        -12.19100        4.33100        3.53700
C        -11.74500        4.26300        2.54800
H        -10.77600        4.75700        2.55000
H        -12.39900        4.73500        1.81800
C        -11.57100        2.80600        2.19100
O        -12.29500        2.29600        1.34400
N        -10.61000        2.15200        2.83500
H        -10.13900        2.64000        3.58900
C        -10.38200        0.70300        2.78100
H        -11.35300        0.20900        2.85800
C         -9.72600        0.29300        1.44300
H         -9.99500        1.00600        0.66300
H         -8.64000        0.31700        1.54400
C        -10.16700       -1.09800        0.95700
H        -11.23100       -1.06300        0.71000
H         -9.62300       -1.34000        0.04200
C         -9.91700       -2.18300        2.00600
O        -10.87100       -2.56900        2.71400
O         -8.74300       -2.56400        2.19500
C         -9.52000        0.28200        3.99000
O         -8.50300        0.91100        4.29200
N         -9.91000       -0.78500        4.68800
H        -10.64000       -1.37300        4.29000
C         -9.32700       -1.18800        5.96800
H         -9.27000       -0.30800        6.60700
C        -10.27400       -2.19400        6.62600
H        -10.39200       -3.04300        5.95000
H         -9.81800       -2.55700        7.54800
S        -11.92500       -1.54900        7.02400
C         -7.89300       -1.74700        5.88500
O         -7.20400       -1.77700        6.90400
N         -7.41500       -2.16700        4.70800
H         -8.03400       -2.16100        3.89700
C         -6.00700       -2.52300        4.48500
H         -5.61300       -2.96600        5.40100
C         -5.90200       -3.58600        3.37400
H         -6.26300       -3.17100        2.43500
H         -4.85500       -3.85500        3.24100
C         -6.66700       -4.85900        3.68900
O         -6.14900       -5.79400        4.27900
N         -7.91400       -4.94700        3.29600
H         -8.43600       -5.75900        3.54700
H         -8.34300       -4.13200        2.84400
C         -5.11800       -1.29400        4.18200
O         -3.90500       -1.42300        4.03400
N         -5.67200       -0.09100        4.07400
H         -5.08200        0.69700        3.88000
H         -6.67200        0.02600        4.19400
