96
-2 1
H         -9.07900        4.95500        9.80900
C         -8.54800        4.46900        8.99400
H         -9.17800        3.71400        8.53200
H         -7.63600        4.00600        9.37100
C         -8.20000        5.50500        7.95400
O         -8.99900        6.40000        7.70000
N         -7.01100        5.40100        7.37100
H         -6.41200        4.61200        7.62400
C         -6.52500        6.31700        6.33400
H         -6.78500        7.32700        6.65300
C         -4.98400        6.24000        6.27800
H         -4.60500        6.68700        7.19900
H         -4.69100        5.19000        6.29300
C         -4.22900        6.89200        5.10000
H         -3.17000        6.93900        5.35900
H         -4.31600        6.22400        4.24200
C         -4.69300        8.28500        4.64900
O         -5.54500        8.92500        5.30900
O         -4.29800        8.70000        3.54100
C         -7.21700        6.08500        4.97600
O         -7.49600        4.95200        4.57000
N         -7.49300        7.18900        4.27200
H         -7.18500        8.06500        4.68200
C         -8.05600        7.22200        2.91900
H         -7.56800        6.43500        2.34400
C         -9.55800        6.90400        3.00900
H         -9.74900        6.30800        3.90100
H        -10.11100        7.83800        3.10900
S        -10.20700        5.98300        1.59100
C         -7.81500        8.55500        2.16200
O         -8.44600        8.80300        1.13600
N         -6.95400        9.44600        2.66900
H         -6.35700        9.16800        3.44400
C         -6.68200       10.76500        2.08300
H         -7.60900       11.17800        1.68000
C         -6.17100       11.70000        3.19500
H         -5.26000       11.28700        3.62900
H         -5.93000       12.66800        2.75900
C         -7.18900       11.93100        4.29700
O         -8.03700       12.80400        4.21600
N         -7.13500       11.17700        5.36800
H         -6.44900       10.41600        5.41900
H         -7.82700       11.32000        6.07400
C         -5.67000       10.70900        0.92100
O         -5.72900       11.51400       -0.00400
N         -4.72500        9.77900        0.94100
H         -4.06300        9.73900        0.18800
H         -4.62200        9.19900        1.77100
H         -4.05000        3.32000        4.83300
C         -4.66100        3.20800        3.93700
H         -4.03400        2.90800        3.10100
H         -5.15500        4.14900        3.71300
C         -5.71400        2.15900        4.17600
O         -6.07300        1.43300        3.25100
N         -6.21200        2.06600        5.40500
H         -5.87200        2.71700        6.11500
C         -7.11200        0.99500        5.85300
H         -6.62400        0.03900        5.66200
C         -7.37400        1.09600        7.36700
H         -7.80800        2.06700        7.59700
H         -8.11800        0.34200        7.62900
C         -6.14600        0.83800        8.26000
H         -6.49800        0.72200        9.28800
H         -5.69400       -0.11100        7.96000
C         -5.08800        1.95200        8.23700
O         -5.45200        3.10900        7.91600
O         -3.91500        1.63700        8.52900
C         -8.45500        0.95200        5.10600
O         -9.08900       -0.10400        5.07600
N         -8.88100        2.03700        4.44500
H         -8.32600        2.88800        4.48700
C        -10.09200        2.01700        3.61300
H        -10.91300        1.66000        4.23600
C        -10.43400        3.44000        3.16500
H        -11.45900        3.43600        2.79400
H        -10.39400        4.09700        4.03400
S         -9.38800        4.13900        1.86100
C        -10.00200        1.05900        2.40500
O        -11.03000        0.67500        1.85100
N         -8.79100        0.63500        2.02000
H         -7.98900        0.99400        2.52400
C         -8.55700       -0.39500        1.00100
H         -9.25000       -0.22600        0.17400
C         -7.12200       -0.24700        0.46300
H         -6.40700       -0.37900        1.27400
H         -6.94000       -1.02600       -0.27800
C         -6.88400        1.09000       -0.21600
O         -7.15400        1.26900       -1.39000
N         -6.36600        2.06500        0.49200
H         -6.28300        2.95800        0.04600
H         -6.17100        1.92300        1.47800
C         -8.82100       -1.83100        1.50900
O         -8.76500       -2.78600        0.73900
N         -9.09200       -2.03700        2.79300
H         -9.26200       -2.97700        3.10400
H         -9.13600       -1.25900        3.43900
