96
-2 1
H        -11.64600        6.42300        3.14600
C        -11.09500        7.31000        2.84200
H        -11.60700        8.19700        3.20900
H        -11.00700        7.34200        1.75900
C         -9.71600        7.25700        3.45200
O         -8.72300        7.33600        2.73600
N         -9.66400        7.14600        4.77300
H        -10.53600        7.13600        5.29600
C         -8.44700        7.15300        5.59400
H         -7.61500        6.88900        4.94100
C         -8.18200        8.58600        6.10800
H         -7.10500        8.68100        6.25100
H         -8.44400        9.28900        5.31600
C         -8.84400        9.07500        7.41600
H         -8.33100        8.60200        8.25400
H         -8.63900       10.14500        7.49900
C        -10.35700        8.84700        7.59600
O        -10.97300        9.65000        8.33300
O        -10.91300        7.82700        7.12700
C         -8.45300        6.07800        6.70500
O         -7.65000        6.13800        7.63700
N         -9.34000        5.08100        6.60000
H         -9.94400        5.07500        5.77700
C         -9.58700        4.01200        7.57200
H        -10.40300        3.42000        7.15500
C         -8.36700        3.07900        7.65200
H         -7.50000        3.65900        7.96700
H         -8.55300        2.33000        8.42200
S         -7.96500        2.21200        6.11000
C        -10.11300        4.47800        8.94900
O         -9.98400        3.74600        9.93300
N        -10.73600        5.66000        9.03000
H        -10.78200        6.23100        8.18800
C        -11.30900        6.22800       10.26000
H        -11.41000        5.44200       11.01100
C        -10.30100        7.26300       10.80500
H         -9.54200        6.74200       11.38600
H         -9.79300        7.75400        9.98000
C        -10.92000        8.34300       11.67500
O        -11.00100        8.23600       12.88800
N        -11.34500        9.43500       11.08500
H        -11.26300        9.53100       10.06500
H        -11.78100       10.12700       11.65500
C        -12.74000        6.78000       10.05500
O        -13.59100        6.64100       10.93000
N        -13.06300        7.35900        8.90900
H        -13.99200        7.71600        8.79100
H        -12.34400        7.53700        8.21200
H         -7.74200        4.98000        0.40000
C         -8.45900        4.45300        1.02400
H         -9.33000        5.08600        1.17700
H         -8.00200        4.23000        1.98600
C         -8.87000        3.16700        0.33900
O         -8.38500        2.87300       -0.74500
N         -9.74800        2.35500        0.92000
H         -9.95200        1.50200        0.42200
C        -10.45200        2.54200        2.19800
H         -9.82600        3.12600        2.87300
C        -11.76500        3.32000        1.94400
H        -11.50300        4.33600        1.65000
H        -12.28700        2.86600        1.10000
C        -12.76600        3.40800        3.11300
H        -13.46100        4.22800        2.92200
H        -13.34800        2.48400        3.12400
C        -12.11100        3.59600        4.48600
O        -11.07600        4.28500        4.56500
O        -12.56900        2.93500        5.44400
C        -10.70900        1.18000        2.86700
O        -11.13800        0.23400        2.20500
N        -10.47300        1.07500        4.17800
H        -10.19200        1.90900        4.68400
C        -10.63100       -0.16600        4.94500
H        -10.01400       -0.94000        4.48700
C        -10.13400        0.06700        6.37700
H        -10.63500        0.94000        6.80100
H        -10.42400       -0.80000        6.97200
S         -8.34000        0.25800        6.55100
C        -12.07600       -0.70000        4.97400
O        -12.28300       -1.91200        4.96100
N        -13.07300        0.18800        4.99200
H        -12.82800        1.17200        5.07600
C        -14.49600       -0.14900        4.88600
H        -14.67900       -1.06200        5.45700
C        -15.31900        0.98400        5.52700
H        -15.08700        1.93200        5.04300
H        -16.38000        0.78100        5.38100
C        -15.08600        1.10700        7.02300
O        -15.72800        0.44700        7.82400
N        -14.17700        1.94800        7.45100
H        -13.59800        2.45900        6.77700
H        -14.04200        2.03200        8.43900
C        -14.95200       -0.45100        3.43800
O        -16.12300       -0.72500        3.19500
N        -14.07200       -0.40100        2.44300
H        -13.09900       -0.19600        2.62700
H        -14.39000       -0.60000        1.51200
