96
-2 1
H         -8.97500       12.57900       -1.38800
C         -9.64000       12.06900       -2.08200
H         -9.20000       12.04600       -3.07700
H        -10.60300       12.57500       -2.10900
C         -9.84900       10.65300       -1.60500
O         -9.56500        9.71000       -2.33200
N        -10.33800       10.52200       -0.37900
H        -10.49800       11.35900        0.17200
C        -10.57800        9.25800        0.32500
H        -10.71300        8.46700       -0.41300
C         -9.31600        8.89700        1.14700
H         -9.54800        8.07000        1.81800
H         -8.56200        8.52400        0.45400
C         -8.66400       10.03500        1.95900
H         -7.93700        9.60000        2.64900
H         -8.11200       10.68500        1.27600
C         -9.68400       10.87200        2.73200
O        -10.23100       11.84100        2.16000
O        -10.01000       10.48700        3.87400
C        -11.91700        9.32200        1.10500
O        -12.90100        9.83200        0.57100
N        -12.01200        8.77700        2.32500
H        -11.17200        8.47100        2.79500
C        -13.26800        8.73000        3.08400
H        -14.06100        8.43000        2.39800
C        -13.16600        7.64600        4.16500
H        -14.13900        7.58500        4.65400
H        -12.98300        6.68400        3.68600
S        -11.91900        7.90600        5.45900
C        -13.71200       10.07900        3.69300
O        -14.89700       10.23700        3.98900
N        -12.80600       11.04300        3.88600
H        -11.83300       10.84200        3.65900
C        -13.12200       12.40600        4.33300
H        -14.01600       12.38200        4.95900
C        -11.95400       12.94700        5.17800
H        -11.04200       12.94700        4.58100
H        -12.17300       13.97500        5.46400
C        -11.71700       12.15500        6.45100
O        -12.25700       12.45200        7.50400
N        -10.88800       11.14200        6.40900
H        -10.79200       10.58000        7.22800
H        -10.49100       10.86400        5.50400
C        -13.42200       13.35100        3.15400
O        -14.20700       14.28800        3.28000
N        -12.81200       13.13800        1.99500
H        -13.01900       13.73500        1.21700
H        -12.08700       12.42900        1.94100
H        -11.61000        1.60800       -2.13800
C        -10.52400        1.60500       -2.20300
H        -10.21100        1.48900       -3.23900
H        -10.12000        0.79600       -1.59800
C         -9.99800        2.91700       -1.67600
O         -9.29300        3.62600       -2.38300
N        -10.35500        3.22500       -0.43600
H        -10.98700        2.59700        0.05100
C        -10.02200        4.46100        0.27900
H         -9.20300        4.95600       -0.24500
C        -11.23100        5.43200        0.22100
H        -11.07600        6.23300        0.94400
H        -11.23000        5.90400       -0.76200
C        -12.64100        4.83700        0.43600
H        -13.34300        5.65600        0.60700
H        -12.95000        4.33100       -0.48200
C        -12.71200        3.84100        1.59700
O        -12.91100        4.28600        2.74900
O        -12.42100        2.64200        1.39000
C         -9.45700        4.15000        1.68700
O         -8.44200        3.46400        1.79700
N        -10.07300        4.63700        2.76700
H        -10.95600        5.11400        2.64200
C         -9.69300        4.34000        4.15000
H         -8.62100        4.49300        4.27300
C        -10.45400        5.31800        5.05300
H        -11.51700        5.09200        4.96600
H        -10.16300        5.14200        6.08900
S        -10.23000        7.07700        4.68200
C        -10.03300        2.90200        4.59200
O         -9.40000        2.38000        5.50900
N        -11.05500        2.28300        3.99000
H        -11.54500        2.78300        3.25100
C        -11.58600        0.96500        4.35500
H        -11.18900        0.66500        5.32600
C        -13.11900        1.07400        4.46600
H        -13.53300        1.38000        3.50500
H        -13.52400        0.09300        4.71300
C        -13.58400        2.04900        5.53300
O        -13.82700        1.68500        6.67200
N        -13.75500        3.30800        5.20800
H        -14.05900        3.93300        5.92600
H        -13.51800        3.63100        4.26300
C        -11.19000       -0.12800        3.34500
O        -11.01500       -1.28800        3.70600
N        -11.04500        0.20800        2.07000
H        -11.29700        1.14900        1.78200
H        -10.77200       -0.49400        1.40900
