99
0 1
H         40.12800      -54.48700      -52.93700
C         39.83500      -53.55400      -53.41400
H         39.26400      -53.76700      -54.31600
H         40.72400      -52.97500      -53.66200
C         38.98000      -52.75900      -52.45500
O         39.38000      -51.68700      -52.02200
N         37.79600      -53.28100      -52.15100
H         37.51500      -54.10100      -52.67300
C         36.76300      -52.58100      -51.37900
H         36.05900      -53.30600      -50.97300
H         37.23000      -52.05600      -50.54500
C         35.98400      -51.55800      -52.21500
O         36.18900      -51.44500      -53.42700
N         35.08500      -50.81200      -51.56800
H         34.97300      -50.93900      -50.57500
C         34.52600      -49.58900      -52.14800
H         34.36600      -49.74400      -53.21700
C         33.17300      -49.23400      -51.51800
H         33.34000      -48.89900      -50.49400
H         32.76900      -48.38700      -52.07500
S         31.89200      -50.52300      -51.48400
C         35.53100      -48.44100      -51.97100
O         36.12100      -48.29000      -50.90100
N         35.74500      -47.66300      -53.03100
H         35.16900      -47.86100      -53.84900
C         36.93200      -46.81000      -53.23200
H         37.19600      -46.34500      -52.28100
C         38.10500      -47.71700      -53.66300
H         39.00400      -47.11400      -53.80300
H         38.30300      -48.41700      -52.84800
C         37.82300      -48.51600      -54.95200
H         36.80900      -48.90100      -54.92100
H         37.91500      -47.86100      -55.81900
C         38.76900      -49.71500      -55.10200
H         39.78400      -49.35000      -55.26500
H         38.76000      -50.29700      -54.18000
C         38.36600      -50.63200      -56.26600
H         38.38100      -50.05700      -57.19700
H         39.10600      -51.43100      -56.34600
N         37.02100      -51.22500      -56.07200
H         36.78900      -51.90100      -56.79600
H         36.90300      -51.63000      -55.14600
H         36.28600      -50.51900      -56.15000
C         36.72100      -45.65800      -54.22600
O         37.58000      -44.79800      -54.36100
N         35.60300      -45.60500      -54.93200
H         35.47900      -44.84200      -55.57300
H         34.92600      -46.35700      -54.86800
H         36.15100      -55.91900      -52.22100
C         35.18000      -55.70200      -52.66200
H         34.57500      -55.12400      -51.96600
H         34.67200      -56.63700      -52.89500
C         35.37000      -54.91300      -53.93700
O         36.49900      -54.61400      -54.31100
N         34.26300      -54.58200      -54.59200
H         33.37300      -54.87000      -54.21200
C         34.21800      -53.84100      -55.85400
H         34.96700      -53.05100      -55.83300
C         34.53900      -54.82800      -56.99900
H         35.59800      -55.08800      -56.94500
H         33.96600      -55.74400      -56.84800
C         34.23200      -54.32400      -58.41600
H         34.60400      -55.04800      -59.14000
H         33.15000      -54.26400      -58.53800
C         34.84400      -52.96500      -58.73100
O         35.87200      -52.56900      -58.20000
N         34.19700      -52.20500      -59.58200
H         34.52000      -51.25600      -59.75400
H         33.34800      -52.51800      -60.01200
C         32.83400      -53.19200      -55.99800
O         31.83400      -53.90400      -55.92400
N         32.76500      -51.86600      -56.17100
H         33.62400      -51.32200      -56.22100
C         31.52500      -51.10300      -55.95200
H         30.67200      -51.78300      -55.98400
C         31.57900      -50.48200      -54.54300
H         32.26500      -49.63600      -54.56700
H         30.58800      -50.09500      -54.30200
S         32.11000      -51.59400      -53.20600
C         31.24900      -50.00800      -57.00400
O         30.19900      -49.37300      -56.95900
N         32.17500      -49.75300      -57.93300
H         33.04000      -50.27900      -57.89300
C         32.18000      -48.54200      -58.76600
H         31.14900      -48.22900      -58.93300
C         32.89600      -47.40000      -58.01600
H         32.89500      -46.52100      -58.66100
H         32.32600      -47.14400      -57.12200
C         34.35300      -47.70000      -57.61600
H         34.89800      -48.12800      -58.45800
H         34.83800      -46.75300      -57.37300
C         34.44100      -48.62300      -56.39400
O         34.21200      -48.13500      -55.26800
O         34.76000      -49.82600      -56.55500
C         32.81600      -48.75900      -60.15100
O         33.70000      -49.58900      -60.33900
N         32.39900      -47.99400      -61.15100
H         31.68400      -47.30200      -61.00100
H         32.82400      -48.12300      -62.05500
