99
0 1
H         32.29200      -58.08300      -68.02400
C         32.79300      -58.16300      -68.98700
H         32.21300      -57.63300      -69.74200
H         32.89300      -59.20800      -69.27200
C         34.16100      -57.53200      -68.89000
O         34.44300      -56.55900      -69.57700
N         35.01200      -58.07400      -68.02000
H         34.68300      -58.85300      -67.47300
C         36.36800      -57.57200      -67.75200
H         36.93800      -58.33900      -67.22900
H         36.86100      -57.35800      -68.70100
C         36.39400      -56.29200      -66.90800
O         37.07900      -56.24400      -65.88500
N         35.61000      -55.28300      -67.28200
H         35.08800      -55.37700      -68.14700
C         35.34000      -54.13000      -66.42800
H         36.29000      -53.77200      -66.02600
C         34.71800      -52.98700      -67.24100
H         33.68300      -53.24600      -67.47100
H         34.70200      -52.10200      -66.60300
S         35.52800      -52.52000      -68.80300
C         34.43900      -54.52200      -65.23900
O         33.64400      -55.46000      -65.32000
N         34.56500      -53.78800      -64.13100
H         35.26900      -53.05400      -64.17100
C         33.84800      -53.98600      -62.85700
H         32.84300      -54.34700      -63.08200
C         34.56900      -55.07500      -62.04100
H         33.95100      -55.34900      -61.18400
H         34.65900      -55.96200      -62.66800
C         35.95600      -54.63500      -61.52600
H         36.42500      -53.96900      -62.24400
H         35.82100      -54.07700      -60.59900
C         36.91100      -55.80900      -61.26500
H         37.79700      -55.44200      -60.74300
H         36.41100      -56.53200      -60.62000
C         37.34400      -56.50800      -62.56300
H         37.83400      -57.45300      -62.31400
H         36.45900      -56.74100      -63.16000
N         38.27300      -55.68900      -63.37200
H         39.20100      -55.63300      -62.95700
H         38.38500      -56.11700      -64.29100
H         37.96700      -54.72400      -63.50700
C         33.66000      -52.70100      -62.03500
O         32.94300      -52.70900      -61.04400
N         34.28300      -51.59200      -62.40500
H         34.14100      -50.76100      -61.85700
H         34.91900      -51.60000      -63.19300
H         39.42900      -58.30900      -68.07300
C         39.97400      -58.59700      -67.17600
H         40.98800      -58.89100      -67.44100
H         39.46900      -59.42800      -66.68600
C         40.03300      -57.42600      -66.22400
O         39.62900      -57.54700      -65.07100
N         40.52500      -56.28900      -66.70900
H         40.82000      -56.25600      -67.67400
C         40.69400      -55.06400      -65.92600
H         39.94500      -55.03900      -65.14100
C         42.08800      -55.07600      -65.26800
H         42.24000      -56.02600      -64.75300
H         42.84000      -55.00800      -66.05600
C         42.33300      -53.93100      -64.26900
H         43.40200      -53.89100      -64.05800
H         42.05900      -52.97400      -64.71300
C         41.61100      -54.09600      -62.93200
O         40.87700      -55.04100      -62.67500
N         41.78700      -53.17200      -62.02000
H         42.26800      -52.30600      -62.26100
H         41.29600      -53.28000      -61.15500
C         40.48700      -53.82300      -66.79900
O         41.09300      -53.71400      -67.86200
N         39.67100      -52.88300      -66.32100
H         39.15400      -53.07600      -65.46700
C         39.48300      -51.55200      -66.91800
H         40.15400      -51.43200      -67.76900
C         38.03800      -51.44700      -67.42400
H         37.36800      -51.43000      -66.56400
H         37.91900      -50.50400      -67.95800
S         37.52600      -52.80300      -68.51200
C         39.80600      -50.42500      -65.91500
O         39.81800      -49.24800      -66.26200
N         40.03500      -50.78600      -64.65000
H         39.95200      -51.77000      -64.42900
C         40.13600      -49.88600      -63.50900
H         39.66300      -48.93500      -63.76000
C         39.37600      -50.49700      -62.31300
H         39.87900      -51.40100      -61.97900
H         39.42000      -49.78000      -61.49200
C         37.89500      -50.83300      -62.56700
H         37.44700      -51.10900      -61.61100
H         37.39500      -49.92300      -62.90800
C         37.62100      -51.97400      -63.56700
O         38.41900      -52.93800      -63.70000
O         36.55500      -51.92300      -64.21400
C         41.60600      -49.61900      -63.14600
O         42.37500      -50.53900      -62.87300
N         42.01800      -48.35900      -63.09700
H         41.39600      -47.61000      -63.35100
H         42.98200      -48.18400      -62.86400
