106
0 1
H         -7.87500       23.27300      -19.51500
C         -6.94400       23.20500      -18.95500
H         -6.68100       24.18700      -18.56800
H         -6.14900       22.83900      -19.60400
C         -7.12500       22.24700      -17.80300
O         -6.47800       21.20800      -17.75600
N         -8.03300       22.57200      -16.88600
H         -8.57200       23.41500      -17.05100
C         -8.36000       21.78400      -15.69000
H         -7.42000       21.44100      -15.25400
C         -9.02100       22.72300      -14.67100
H         -9.24500       22.17900      -13.75300
H         -8.34800       23.54800      -14.43600
H         -9.94700       23.12600      -15.08000
C         -9.18700       20.50600      -15.99000
O        -10.12200       20.15300      -15.27000
N         -8.87000       19.81200      -17.08600
H         -8.05900       20.12600      -17.60900
C         -9.56800       18.62300      -17.57300
H        -10.64300       18.80800      -17.52700
C         -9.18500       18.38900      -19.04200
H         -8.13200       18.10400      -19.07500
H         -9.75900       17.54000      -19.41500
S         -9.40100       19.76700      -20.20200
C         -9.25300       17.38800      -16.70100
O         -8.50600       16.50200      -17.11100
N         -9.79100       17.35400      -15.47800
H        -10.32300       18.18200      -15.22600
C         -9.47300       16.42600      -14.37500
H        -10.13000       16.69200      -13.54700
C         -9.79800       14.96400      -14.73800
H         -9.01400       14.58200      -15.39400
H         -9.75100       14.36900      -13.82400
C        -11.14300       14.71800      -15.39600
C        -12.31900       14.71500      -14.62300
H        -12.26900       14.90200      -13.55900
C        -13.56100       14.44700      -15.22900
H        -14.46200       14.43600      -14.63100
C        -13.62900       14.17800      -16.60700
H        -14.58300       13.95900      -17.06800
C        -12.45600       14.18500      -17.38300
H        -12.50500       13.96400      -18.44100
C        -11.21600       14.45500      -16.77800
H        -10.31100       14.44100      -17.37300
C         -8.04300       16.54000      -13.81000
O         -7.85200       16.41800      -12.60700
N         -7.02900       16.79900      -14.62400
H         -6.10500       16.87700      -14.23300
H         -7.19000       16.83500      -15.62100
H        -17.59200       21.97600      -18.80500
C        -16.63000       22.27600      -19.21500
H        -16.75600       23.17100      -19.82200
H        -16.22400       21.47200      -19.82800
C        -15.67600       22.57200      -18.08300
O        -15.14900       23.67500      -17.98900
N        -15.41700       21.57300      -17.24200
H        -15.81200       20.66300      -17.43800
C        -14.50900       21.67200      -16.08500
H        -14.88000       22.44600      -15.41300
C        -14.50900       20.33300      -15.33500
H        -13.93100       20.45400      -14.41800
H        -15.53200       20.08100      -15.05200
C        -13.93000       19.17800      -16.11900
N        -14.28200       18.82400      -17.42500
C        -13.62400       17.68500      -17.68600
H        -13.71000       17.12300      -18.60700
N        -12.89400       17.31100      -16.62300
H        -12.41800       16.41800      -16.53000
C        -13.07200       18.24200      -15.62500
H        -12.66700       18.21700      -14.62200
C        -13.07800       22.07200      -16.46600
O        -12.40200       22.71800      -15.67300
N        -12.66100       21.78900      -17.70500
H        -13.25800       21.19600      -18.26200
C        -11.42300       22.27900      -18.31200
H        -10.57800       21.77000      -17.85800
C        -11.46300       21.93400      -19.80400
H        -12.37400       22.35700      -20.23100
H        -10.62200       22.42400      -20.29700
S        -11.39700       20.17300      -20.23000
C        -11.19500       23.79700      -18.15900
O        -10.04500       24.22900      -18.10500
N        -12.26200       24.60000      -18.09000
H        -13.18700       24.18500      -18.13000
C        -12.19600       26.06200      -17.97700
H        -11.22800       26.39300      -18.35500
C        -13.27200       26.67900      -18.88400
H        -14.25200       26.49400      -18.43900
H        -13.12700       27.75900      -18.92300
C        -13.25500       26.13600      -20.30400
C        -12.15500       26.39900      -21.14500
H        -11.34200       27.01700      -20.78800
C        -12.10700       25.85100      -22.44200
H        -11.26100       26.05300      -23.08100
C        -13.16500       25.03600      -22.90000
O        -13.12500       24.49600      -24.14600
H        -12.37100       24.80800      -24.64800
C        -14.26700       24.77400      -22.06000
H        -15.07100       24.15400      -22.42300
C        -14.31100       25.32600      -20.76600
H        -15.15600       25.12700      -20.12100
C        -12.28200       26.58200      -16.52800
O        -12.30200       27.78600      -16.29900
N        -12.33300       25.71500      -15.52300
H        -12.38600       26.07500      -14.58500
H        -12.30600       24.72000      -15.70200
