106
0 1
H         -8.59300       25.89200      -12.29400
C         -8.94600       26.80800      -12.76500
H         -8.94100       27.62200      -12.04300
H         -9.95800       26.65400      -13.13600
C         -8.04100       27.15400      -13.92200
O         -8.49300       27.20900      -15.06100
N         -6.76000       27.37600      -13.63300
H         -6.47600       27.29600      -12.67000
C         -5.71100       27.66000      -14.61800
H         -6.12200       28.33200      -15.37300
C         -4.57200       28.40200      -13.90300
H         -4.12600       27.76100      -13.14100
H         -3.80200       28.67300      -14.62700
H         -4.95200       29.31200      -13.43700
C         -5.24400       26.38500      -15.36200
O         -4.07500       26.00800      -15.31400
N         -6.17900       25.68400      -16.00300
H         -7.12600       26.04900      -16.01100
C         -5.97600       24.37600      -16.62500
H         -4.97600       24.34700      -17.06100
C         -6.05200       23.27900      -15.54400
H         -6.24800       22.31600      -16.01700
H         -5.06100       23.21500      -15.09000
S         -7.22900       23.50200      -14.17100
C         -6.96700       24.12500      -17.77400
O         -7.98400       24.80500      -17.89300
N         -6.67600       23.13300      -18.62000
H         -5.82700       22.60200      -18.48700
C         -7.55100       22.68300      -19.70500
H         -8.58800       22.82400      -19.40400
C         -7.31200       23.53100      -20.96100
H         -7.46000       24.58300      -20.71300
H         -6.27600       23.41000      -21.28100
C         -8.23800       23.18000      -22.11000
C         -7.77500       22.39800      -23.18500
H         -6.75000       22.05400      -23.20500
C         -8.64900       22.05100      -24.23200
H         -8.29200       21.44900      -25.05600
C         -9.98700       22.48300      -24.20400
H        -10.65800       22.21400      -25.00800
C        -10.45200       23.26100      -23.12900
H        -11.48200       23.58800      -23.10500
C         -9.57800       23.60800      -22.08300
H         -9.93900       24.19600      -21.25200
C         -7.33200       21.18700      -19.98000
O         -6.20600       20.70400      -19.90700
N         -8.38100       20.44300      -20.29700
H         -8.24100       19.45900      -20.45600
H         -9.30400       20.85800      -20.32900
H        -15.92900       21.99600      -16.13600
C        -15.01200       21.46600      -15.88200
H        -15.24800       20.43400      -15.62700
H        -14.52800       21.95500      -15.03900
C        -14.08200       21.48200      -17.07100
O        -13.64600       20.43300      -17.53100
N        -13.74200       22.67600      -17.55200
H        -14.06900       23.50400      -17.06900
C        -12.84300       22.89000      -18.69900
H        -13.26400       22.40300      -19.57900
C        -12.74900       24.40000      -18.96800
H        -12.13300       24.56400      -19.85300
H        -13.74600       24.79000      -19.17800
C        -12.16400       25.17400      -17.81100
N        -12.75600       25.31200      -16.55200
C        -11.86400       25.98300      -15.80500
H        -12.00600       26.24500      -14.76500
N        -10.76000       26.25400      -16.51900
H         -9.91000       26.68500      -16.15400
C        -10.93100       25.75100      -17.78700
H        -10.20500       25.76100      -18.58900
C        -11.44400       22.29200      -18.48500
O        -10.83200       21.82400      -19.44000
N        -10.97400       22.23000      -17.23600
H        -11.49600       22.71600      -16.52300
C         -9.74000       21.54700      -16.83500
H         -8.91000       21.95100      -17.40800
C         -9.48500       21.84800      -15.35400
H        -10.36000       21.55900      -14.77100
H         -8.64900       21.23300      -15.01600
S         -9.08700       23.57700      -15.00300
C         -9.74300       20.02100      -17.05400
O         -8.68200       19.41000      -16.95600
N        -10.90300       19.40400      -17.31600
H        -11.73800       19.97000      -17.38500
C        -11.08700       17.94600      -17.27600
H        -10.11000       17.46000      -17.26000
C        -11.82000       17.57700      -15.97200
H        -12.88100       17.79200      -16.10300
H        -11.72400       16.50300      -15.81100
C        -11.32800       18.30300      -14.72800
C        -12.17600       19.20800      -14.05800
H        -13.18800       19.35700      -14.40700
C        -11.70600       19.92000      -12.93800
H        -12.34700       20.61400      -12.41500
C        -10.38300       19.73200      -12.48700
O         -9.92900       20.43800      -11.42000
H         -9.04100       20.17800      -11.17200
C         -9.53200       18.82700      -13.15700
H         -8.51500       18.68700      -12.82500
C        -10.00800       18.11300      -14.27400
H         -9.35000       17.43700      -14.80400
C        -11.84000       17.37700      -18.49200
O        -11.70900       16.20300      -18.81000
N        -12.62600       18.17800      -19.20100
H        -12.78700       19.12600      -18.89600
H        -13.10300       17.79200      -19.99800
