106
0 1
H         -6.36000       15.07900      -16.25900
C         -6.90400       15.45200      -15.39300
H         -6.69800       14.82300      -14.52900
H         -7.97300       15.45400      -15.59900
C         -6.45100       16.86100      -15.09400
O         -5.56300       17.38100      -15.76000
N         -7.06000       17.48200      -14.08900
H         -7.75600       16.96500      -13.56200
C         -6.64500       18.79200      -13.58900
H         -6.53100       19.46700      -14.43900
C         -7.75900       19.33200      -12.68400
H         -7.93700       18.63600      -11.86400
H         -7.47600       20.30500      -12.28100
H         -8.67800       19.44100      -13.26100
C         -5.28800       18.72600      -12.85600
O         -4.87700       17.67100      -12.37200
N         -4.59000       19.85500      -12.71900
H         -4.93500       20.71400      -13.12200
C         -3.37000       19.92700      -11.91300
H         -3.52100       19.30200      -11.03400
C         -2.19300       19.35500      -12.71900
H         -2.52000       18.44300      -13.21900
H         -1.90800       20.07100      -13.49100
S         -0.73300       18.93700      -11.73400
C         -3.09500       21.35100      -11.41100
O         -3.54300       22.31600      -12.02800
N         -2.36000       21.48400      -10.30200
H         -1.95000       20.65200       -9.89900
C         -1.96200       22.77100       -9.71500
H         -2.23600       23.57700      -10.39700
C         -2.68200       23.01400       -8.37400
H         -2.26000       22.32600       -7.64400
H         -2.44200       24.02300       -8.03600
C         -4.19500       22.85800       -8.32500
C         -4.78900       22.29400       -7.17800
H         -4.17300       21.97200       -6.35000
C         -6.18600       22.15100       -7.09700
H         -6.63600       21.72000       -6.21200
C         -6.99800       22.56900       -8.16500
H         -8.07300       22.46300       -8.10100
C         -6.41300       23.14600       -9.30400
H         -7.03700       23.48800      -10.11900
C         -5.01700       23.30300       -9.37800
H         -4.58500       23.77600      -10.24800
C         -0.43900       22.83200       -9.52000
O          0.20100       21.83200       -9.20300
N          0.16400       24.00500       -9.65800
H         -0.36300       24.82600       -9.90500
H          1.16100       24.04600       -9.51700
H         -8.85600       12.65400      -12.26000
C         -9.41400       13.52000      -11.90900
H         -9.89000       13.29100      -10.95700
H        -10.17400       13.78700      -12.64200
C         -8.47000       14.68400      -11.72800
O         -8.63400       15.71600      -12.37200
N         -7.47200       14.51500      -10.86200
H         -7.37600       13.62300      -10.39800
C         -6.45000       15.52600      -10.57000
H         -6.35500       16.16200      -11.44400
C         -6.91600       16.40200       -9.39400
H         -7.93100       16.74600       -9.59300
H         -6.94200       15.79300       -8.48800
C         -6.05600       17.61400       -9.12600
N         -4.77500       17.59500       -8.57600
C         -4.40800       18.87600       -8.43200
H         -3.47100       19.20100       -7.99800
N         -5.38200       19.69100       -8.87000
H         -5.38300       20.70400       -8.78500
C         -6.43400       18.91400       -9.30100
H         -7.39300       19.25700       -9.66000
C         -5.08200       14.87800      -10.31000
O         -5.01800       13.77900       -9.76000
N         -3.99300       15.54700      -10.69400
H         -4.13400       16.45200      -11.13100
C         -2.61700       15.05100      -10.57900
H         -2.55200       14.11100      -11.13000
C         -1.68100       16.06500      -11.25400
H         -0.69400       15.61100      -11.35900
H         -2.06100       16.27400      -12.25400
S         -1.48500       17.63400      -10.36200
C         -2.15400       14.75900       -9.13700
O         -1.21400       13.99000       -8.95300
N         -2.79400       15.34200       -8.11700
H         -3.52600       16.01000       -8.33200
C         -2.52700       15.05100       -6.70000
H         -1.46000       14.86000       -6.57500
C         -2.89300       16.27300       -5.83700
H         -3.96100       16.46300       -5.95500
H         -2.73000       16.00600       -4.79200
C         -2.15000       17.58700       -6.07200
C         -1.04100       17.69100       -6.94100
H         -0.67500       16.82700       -7.47600
C         -0.38700       18.92600       -7.11800
H          0.45700       19.00200       -7.78900
C         -0.81100       20.05800       -6.39400
O         -0.18000       21.24900       -6.55300
H          0.23700       21.31100       -7.42600
C         -1.90800       19.95700       -5.51400
H         -2.21500       20.82600       -4.95300
C         -2.57600       18.72700       -5.36100
H         -3.41100       18.64800       -4.67800
C         -3.24700       13.78200       -6.19200
O         -3.10600       13.40700       -5.03400
N         -4.04000       13.09900       -7.00900
H         -4.48600       12.26900       -6.65700
H         -4.16900       13.39700       -7.96700
