106
0 1
H        -10.29300       24.28400      -21.50500
C         -9.89300       23.37800      -21.05700
H         -9.68900       22.65400      -21.84100
H        -10.61900       22.96100      -20.36200
C         -8.62700       23.72000      -20.31200
O         -8.52500       24.78900      -19.72100
N         -7.64300       22.82700      -20.32700
H         -7.76900       21.97900      -20.85500
C         -6.38300       23.03500      -19.62000
H         -6.61000       23.26400      -18.58000
C         -5.58400       21.72600      -19.64200
H         -5.34400       21.45100      -20.67100
H         -4.65700       21.85300      -19.08300
H         -6.16800       20.92700      -19.18200
C         -5.57400       24.21300      -20.20100
O         -5.15600       24.17800      -21.36000
N         -5.30300       25.22900      -19.37500
H         -5.80100       25.27100      -18.49900
C         -4.33000       26.29600      -19.65900
H         -3.69500       25.95500      -20.47800
C         -5.04900       27.55900      -20.15600
H         -4.29800       28.17200      -20.65700
H         -5.79100       27.28100      -20.90500
S         -5.83300       28.62400      -18.91100
C         -3.36400       26.57200      -18.48600
O         -2.61600       27.54500      -18.50300
N         -3.36800       25.70500      -17.46900
H         -3.95800       24.89000      -17.53800
C         -2.53400       25.78100      -16.26900
H         -1.57700       26.23700      -16.52800
C         -3.22200       26.66700      -15.21300
H         -2.61800       26.66900      -14.30500
H         -3.23000       27.69300      -15.58600
C         -4.64600       26.27300      -14.84800
C         -4.89100       25.21100      -13.95500
H         -4.06700       24.65900      -13.52700
C         -6.21000       24.86200      -13.61400
H         -6.39400       24.04700      -12.92800
C         -7.29100       25.57600      -14.15800
H         -8.30600       25.31500      -13.88700
C         -7.05300       26.63400      -15.05100
H         -7.88400       27.18500      -15.46800
C         -5.73400       26.98200      -15.39400
H         -5.55600       27.80600      -16.07000
C         -2.25100       24.36800      -15.73300
O         -2.94700       23.41300      -16.06400
N         -1.23600       24.20800      -14.89500
H         -0.66800       24.99300      -14.62600
H         -1.05000       23.28000      -14.55000
H         -8.11200       22.25800      -16.82100
C         -8.49300       23.20900      -16.45400
H         -7.78500       24.00600      -16.67100
H         -8.65500       23.14700      -15.37900
C         -9.81000       23.50700      -17.12900
O        -10.36500       22.64400      -17.79600
N        -10.30000       24.73100      -16.95200
H         -9.79600       25.34800      -16.32800
C        -11.63100       25.19300      -17.38000
H        -12.14300       24.38600      -17.90700
C        -12.43200       25.53100      -16.11200
H        -13.45900       25.77700      -16.38600
H        -12.46300       24.65600      -15.46300
C        -11.83600       26.68500      -15.34000
N        -10.67100       26.62900      -14.56900
C        -10.46100       27.87900      -14.12900
H         -9.63400       28.17400      -13.49600
N        -11.40900       28.70800      -14.59800
H        -11.45900       29.70200      -14.42400
C        -12.28100       27.97400      -15.37000
H        -13.13200       28.33600      -15.93300
C        -11.59100       26.39500      -18.34500
O        -12.59000       27.09000      -18.51900
N        -10.43400       26.68900      -18.93900
H         -9.66800       26.03100      -18.83600
C        -10.15100       27.94100      -19.64600
H        -10.46500       28.77100      -19.01300
C         -8.63500       28.04100      -19.86500
H         -8.34700       27.33000      -20.63900
H         -8.41700       29.04400      -20.23300
S         -7.58700       27.72100      -18.42100
C        -10.86400       28.09700      -21.00400
O        -10.89200       29.19800      -21.55100
N        -11.38700       27.01100      -21.57900
H        -11.34400       26.13900      -21.07000
C        -12.05100       26.97900      -22.88500
H        -12.69600       27.85500      -22.96800
C        -11.00900       27.04100      -24.02200
H        -11.51200       26.88500      -24.97700
H        -10.60100       28.05300      -24.05100
C         -9.84900       26.06400      -23.91200
C         -8.64000       26.48000      -23.32000
H         -8.53900       27.49700      -22.96900
C         -7.57000       25.57500      -23.17800
H         -6.64900       25.88800      -22.71200
C         -7.70100       24.25100      -23.64900
O         -6.69400       23.35700      -23.47100
H         -6.03100       23.68500      -22.84000
C         -8.89800       23.84500      -24.27500
H         -8.98600       22.83100      -24.63400
C         -9.97300       24.74700      -24.40000
H        -10.89700       24.42200      -24.85600
C        -12.94400       25.73400      -23.01400
O        -12.76300       24.73900      -22.32000
N        -13.92000       25.75800      -23.91200
H        -14.50900       24.94500      -23.99000
H        -14.07000       26.57500      -24.47900
