106
0 1
H        -10.57200       28.37900      -10.63500
C        -10.23300       27.34500      -10.67400
H        -10.60400       26.80400       -9.80500
H         -9.14500       27.31600      -10.68800
C        -10.76700       26.69600      -11.92700
O        -11.48000       27.33000      -12.69700
N        -10.45000       25.41900      -12.12700
H         -9.95600       24.94100      -11.38700
C        -10.93600       24.60900      -13.25000
H        -10.93000       25.22200      -14.15300
C         -9.95500       23.44500      -13.46000
H         -9.92600       22.81500      -12.57000
H        -10.27900       22.84300      -14.31000
H         -8.95600       23.83300      -13.66200
C        -12.39200       24.15500      -13.00900
O        -12.67100       22.96300      -12.88000
N        -13.30200       25.12000      -12.82100
H        -12.95800       26.06500      -12.96800
C        -14.53600       25.01300      -12.02500
H        -14.99600       26.00200      -12.02300
C        -15.55300       24.06200      -12.69000
H        -15.78800       24.45400      -13.68000
H        -15.11000       23.07500      -12.82000
S        -17.10900       23.85500      -11.77700
C        -14.26700       24.67800      -10.54300
O        -14.73400       25.38700       -9.65000
N        -13.51000       23.61300      -10.27400
H        -13.15800       23.08600      -11.06700
C        -13.11600       23.16200       -8.94300
H        -13.83700       23.54900       -8.22200
C        -13.19400       21.62800       -8.91300
H        -14.08500       21.30400       -9.45400
H        -12.33300       21.21600       -9.44200
C        -13.27700       21.03900       -7.52000
C        -14.47000       21.16200       -6.78300
H        -15.32100       21.67500       -7.21000
C        -14.56100       20.61500       -5.49100
H        -15.47200       20.72300       -4.92000
C        -13.46300       19.93000       -4.94000
H        -13.53200       19.50800       -3.94600
C        -12.27500       19.79600       -5.67900
H        -11.43200       19.26800       -5.25400
C        -12.18000       20.35200       -6.96700
H        -11.26300       20.24600       -7.53300
C        -11.72600       23.69300       -8.54200
O        -10.92600       24.11200       -9.37700
N        -11.40300       23.67400       -7.25600
H        -12.04400       23.29600       -6.57700
H        -10.49500       24.01600       -6.98800
H        -18.76600       20.07200       -4.29400
C        -18.63900       19.50100       -5.21200
H        -18.87800       18.45600       -5.01900
H        -17.61600       19.59100       -5.56900
C        -19.57700       20.03000       -6.27000
O        -20.21700       19.25900       -6.97500
N        -19.64100       21.35200       -6.40000
H        -19.02000       21.92300       -5.83900
C        -20.55500       22.07000       -7.30300
H        -21.58400       21.83200       -7.03100
C        -20.33500       23.58100       -7.11200
H        -20.96000       24.12400       -7.82300
H        -20.66300       23.85600       -6.10900
C        -18.89800       24.03000       -7.27000
N        -17.85900       23.72900       -6.38200
C        -16.76300       24.31000       -6.89200
H        -15.77800       24.26700       -6.44600
N        -17.05200       24.93200       -8.04500
H        -16.36500       25.37700       -8.65500
C        -18.39600       24.76700       -8.30200
H        -18.94600       25.13000       -9.15900
C        -20.40100       21.68000       -8.78000
O        -21.38900       21.64700       -9.50600
N        -19.19000       21.32800       -9.21500
H        -18.41900       21.41000       -8.57200
C        -18.90100       20.88000      -10.58300
H        -19.38600       21.56500      -11.28000
C        -17.38600       20.95300      -10.80600
H        -16.91600       20.15500      -10.22900
H        -17.16900       20.77400      -11.86000
S        -16.64600       22.52300      -10.30200
C        -19.41000       19.46100      -10.90500
O        -19.26000       19.01100      -12.03800
N        -19.96000       18.74000       -9.92000
H        -20.03800       19.16200       -9.00200
C        -20.28000       17.30900      -10.01000
H        -20.07400       16.96500      -11.02400
C        -19.35500       16.52600       -9.06000
H        -19.76300       16.60800       -8.05100
H        -19.38500       15.47100       -9.33500
C        -17.90000       16.97800       -9.03400
C        -17.14700       17.04000      -10.22400
H        -17.59900       16.75500      -11.16500
C        -15.81200       17.49100      -10.19300
H        -15.23000       17.54400      -11.10100
C        -15.22500       17.87800       -8.97100
O        -13.94000       18.31600       -8.94600
H        -13.67700       18.60200       -8.06800
C        -15.97600       17.81700       -7.77800
H        -15.52500       18.10500       -6.84100
C        -17.30900       17.36400       -7.81400
H        -17.88600       17.30400       -6.90300
C        -21.76700       16.99700       -9.74900
O        -22.16700       15.84000       -9.70600
N        -22.61400       18.00400       -9.56500
H        -22.28100       18.95400       -9.60500
H        -23.58100       17.78800       -9.39200
