89
0 1
H          8.38200      -37.00400       13.92200
C          8.07000      -37.06400       12.88100
H          8.06200      -38.10000       12.55100
H          8.75900      -36.49000       12.26300
C          6.67800      -36.47500       12.74500
O          6.53500      -35.45300       12.07700
N          5.64600      -37.09300       13.34800
C          5.71700      -38.26900       14.20400
H          6.56900      -38.22200       14.88300
H          5.77600      -39.16500       13.58400
C          4.41500      -38.27600       15.00500
H          4.53400      -37.66800       15.90300
H          4.10500      -39.28800       15.26500
C          3.42400      -37.60300       14.05400
H          2.58800      -37.15300       14.59100
H          3.06100      -38.33500       13.33000
C          4.28500      -36.56000       13.33600
H          3.94400      -36.46000       12.30700
C          4.22000      -35.18800       14.02300
O          4.90300      -34.95300       15.01800
N          3.40600      -34.28000       13.48000
H          2.90100      -34.54600       12.64300
C          3.35500      -32.86200       13.87300
H          2.65500      -32.38200       13.19800
C          2.76300      -32.68200       15.28300
H          3.49900      -33.03300       16.00800
H          2.62400      -31.61300       15.45600
S          1.18500      -33.51300       15.64100
C          4.68400      -32.09300       13.67200
O          4.85500      -30.99100       14.19500
N          5.62800      -32.63400       12.89200
H          5.49000      -33.57000       12.53500
C          6.84700      -31.93100       12.49200
H          7.37500      -31.60700       13.38900
H          7.49400      -32.61600       11.94300
C          6.56800      -30.70900       11.60600
O          5.65700      -30.69400       10.78400
N          7.36300      -29.65700       11.74600
H          7.18400      -28.84800       11.17500
H          8.09200      -29.66300       12.43900
H          4.73700      -34.41300       10.62800
C          4.19100      -34.04000        9.76700
H          4.72200      -34.31700        8.85900
H          4.11100      -32.95500        9.83400
C          2.80600      -34.63900        9.75900
O          2.40400      -35.25700       10.74400
N          2.09700      -34.45100        8.64100
H          2.56100      -33.91900        7.92200
C          0.66400      -34.75700        8.39700
H          0.43600      -34.41100        7.38900
C          0.37100      -36.27500        8.40900
H          0.58100      -36.67900        9.39900
C         -1.09800      -36.57200        8.07900
H         -1.75300      -36.14300        8.83900
H         -1.35700      -36.15200        7.10700
H         -1.26300      -37.64900        8.06000
C          1.23900      -37.02300        7.38700
H          1.06700      -36.62600        6.38600
H          2.29300      -36.91900        7.64200
H          0.99200      -38.08400        7.39900
C         -0.27600      -33.96400        9.31400
O         -1.06900      -33.15500        8.84300
N         -0.12400      -34.13000       10.62400
H          0.59400      -34.79200       10.89300
C         -0.42800      -33.09300       11.60300
H         -1.47300      -32.80100       11.51000
C         -0.18500      -33.72100       12.98000
H         -0.92800      -34.50100       13.15200
H          0.79000      -34.20600       12.95100
S         -0.17500      -32.61900       14.41300
C          0.49300      -31.87100       11.36800
O          1.66200      -32.06400       11.02000
N          0.02800      -30.62200       11.56100
C         -1.33200      -30.23400       11.90800
H         -1.73800      -30.85100       12.70900
H         -1.96300      -30.30500       11.02000
C         -1.24500      -28.77900       12.36600
H         -1.04200      -28.74400       13.43800
H         -2.15600      -28.22700       12.13200
C         -0.04000      -28.24300       11.59200
H          0.42100      -27.39300       12.09700
H         -0.35300      -27.96100       10.58600
C          0.90100      -29.45000       11.51100
H          1.44000      -29.42500       10.56300
C          1.91600      -29.48000       12.66600
O          1.54700      -29.54500       13.83300
N          3.20400      -29.42900       12.36500
H          3.86500      -29.53800       13.12300
H          3.51400      -29.47100       11.40700
