89
0 1
H          3.79400      -32.84400        4.36500
C          2.75700      -32.67700        4.65300
H          2.65900      -31.68400        5.08700
H          2.45900      -33.43400        5.37700
C          1.88000      -32.78200        3.41900
O          2.41500      -32.99600        2.33500
N          0.54800      -32.63300        3.54900
C         -0.16400      -32.39900        4.80000
H          0.23800      -31.53600        5.33100
H         -0.09900      -33.29100        5.42500
C         -1.62300      -32.14600        4.41700
H         -1.77900      -31.08100        4.23900
H         -2.31000      -32.51100        5.18100
C         -1.76900      -32.91800        3.10600
H         -2.59500      -32.54600        2.49900
H         -1.91800      -33.97700        3.32600
C         -0.40100      -32.72700        2.43600
H         -0.18000      -33.60800        1.83300
C         -0.32600      -31.49000        1.52100
O         -1.17300      -30.60100        1.57200
N          0.73100      -31.40500        0.71500
H          1.42000      -32.14400        0.78100
C          0.94500      -30.35300       -0.28100
H          0.74400      -29.39400        0.18800
C          2.42400      -30.38700       -0.67900
H          3.03000      -30.53900        0.21600
H          2.57700      -31.25300       -1.32500
S          3.08100      -28.93000       -1.53300
C         -0.00100      -30.50500       -1.49200
O         -0.37800      -31.62000       -1.84800
N         -0.37300      -29.39300       -2.13400
H          0.01000      -28.50300       -1.83900
C         -1.34300      -29.33500       -3.23400
H         -0.81000      -29.09600       -4.15400
H         -1.83400      -30.30000       -3.36600
C         -2.43100      -28.27800       -3.00000
O         -2.91000      -28.08900       -1.88700
N         -2.84200      -27.56600       -4.04000
H         -2.44300      -27.71300       -4.95100
H         -3.51000      -26.82400       -3.87300
H         -4.88800      -24.52800       -0.05400
C         -4.88800      -25.32900       -0.79100
H         -5.85100      -25.36700       -1.29800
H         -4.69300      -26.28100       -0.30200
C         -3.80500      -25.07400       -1.81100
O         -4.08200      -25.03000       -3.00500
N         -2.57000      -24.91700       -1.33500
H         -2.44600      -25.05200       -0.33700
C         -1.36700      -24.75100       -2.17300
H         -1.59100      -25.11200       -3.17800
C         -0.94400      -23.27000       -2.30400
H         -0.73300      -22.87200       -1.31100
C          0.32100      -23.11600       -3.16100
H          0.15300      -23.53900       -4.15200
H          0.57300      -22.06100       -3.26200
H          1.16600      -23.62100       -2.69400
C         -2.04100      -22.40800       -2.94100
H         -1.69200      -21.38200       -3.05800
H         -2.31500      -22.81100       -3.91700
H         -2.92500      -22.39500       -2.30400
C         -0.23400      -25.62900       -1.64600
O          0.15800      -26.58900       -2.30300
N          0.26800      -25.34700       -0.44100
H         -0.11400      -24.55700        0.05800
C          1.16600      -26.23200        0.30100
H          0.80100      -27.25100        0.20100
C          2.56700      -26.17700       -0.33200
H          2.47700      -26.06400       -1.41300
H          3.09100      -25.29400        0.03600
S          3.60700      -27.63100       -0.04100
C          1.18400      -25.82700        1.79500
O          1.88300      -24.87500        2.14300
N          0.41100      -26.48500        2.68600
C          0.34600      -26.11400        4.09400
H          0.29400      -25.03100        4.21700
H          1.22200      -26.50700        4.61100
C         -0.92100      -26.76600        4.64300
H         -1.77900      -26.11800        4.45900
H         -0.83000      -26.99700        5.70500
C         -1.03300      -28.02900        3.79200
H         -2.05400      -28.41200        3.76700
H         -0.35400      -28.79100        4.17800
C         -0.54500      -27.56300        2.41500
H         -0.02900      -28.39300        1.93900
C         -1.71900      -27.13300        1.51600
O         -2.00700      -25.95000        1.34000
N         -2.39300      -28.09500        0.91100
H         -2.13700      -29.06300        1.06600
H         -3.05900      -27.86000        0.18900
