89
0 1
H         -1.10500      -30.13400        1.69200
C         -1.57200      -29.23600        2.09300
H         -2.48200      -29.50500        2.62600
H         -1.80900      -28.55900        1.27500
C         -0.60400      -28.55400        3.04500
O          0.47100      -29.10000        3.28800
N         -0.95700      -27.37900        3.59600
C         -2.28300      -26.78200        3.55200
H         -3.05800      -27.51000        3.79500
H         -2.45800      -26.35400        2.56300
C         -2.26200      -25.67200        4.60100
H         -2.48900      -26.09000        5.58400
H         -2.95400      -24.86700        4.35300
C         -0.80700      -25.20800        4.55900
H         -0.51300      -24.71400        5.48600
H         -0.66600      -24.53300        3.71300
C         -0.02300      -26.50300        4.31000
H          0.83000      -26.28300        3.66800
C          0.52900      -27.07600        5.62400
O          1.56600      -26.61300        6.08800
N         -0.12200      -28.07500        6.22700
H         -0.96300      -28.44600        5.80100
C          0.35200      -28.70900        7.46200
H          0.81500      -27.95300        8.09800
C         -0.85700      -29.28400        8.20300
H         -1.28900      -30.06500        7.58300
H         -0.51200      -29.75600        9.12400
S         -2.16500      -28.10300        8.62800
C          1.39800      -29.81900        7.23000
O          1.89200      -30.39800        8.19600
N          1.69500      -30.17700        5.97300
H          1.28600      -29.63800        5.21900
C          2.52100      -31.33600        5.60600
H          2.78900      -31.26300        4.55200
H          3.43900      -31.32100        6.19500
C          1.82300      -32.68500        5.83600
O          1.58800      -33.43900        4.89800
N          1.41300      -32.98800        7.06000
H          1.57400      -32.32700        7.81000
H          0.91400      -33.84700        7.21300
H         -6.09300      -34.05600       15.76400
C         -5.24300      -33.38200       15.67300
H         -4.64000      -33.43000       16.57900
H         -5.59000      -32.36300       15.51800
C         -4.39400      -33.80500       14.49800
O         -3.22600      -34.12800       14.66700
N         -4.98400      -33.79700       13.30300
H         -5.94100      -33.48000       13.24600
C         -4.32900      -34.16200       12.03400
H         -3.24900      -34.08100       12.16000
C         -4.65400      -35.61900       11.62800
H         -5.73600      -35.72700       11.54000
C         -4.02700      -36.00700       10.28100
H         -2.94700      -35.85400       10.31000
H         -4.23000      -37.05700       10.06800
H         -4.46100      -35.41900        9.47400
C         -4.15400      -36.63100       12.66900
H         -4.66700      -36.47800       13.61800
H         -4.36000      -37.64700       12.33500
H         -3.08100      -36.51000       12.82300
C         -4.75300      -33.17600       10.94300
O         -5.91500      -32.78300       10.88000
N         -3.82000      -32.78200       10.07400
H         -2.88200      -33.14300       10.17000
C         -4.05900      -31.86600        8.95800
H         -5.09000      -31.98400        8.62700
C         -3.88500      -30.42900        9.47100
H         -4.68300      -30.20800       10.18000
H         -2.93900      -30.37500       10.01200
S         -3.86500      -29.13700        8.20000
C         -3.10600      -32.19600        7.78500
O         -1.93500      -32.49000        8.03600
N         -3.57100      -32.18200        6.51900
C         -4.94400      -31.92700        6.10000
H         -5.31700      -30.98200        6.49700
H         -5.58100      -32.74900        6.42700
C         -4.91700      -31.87600        4.57200
H         -4.71500      -30.85600        4.24100
H         -5.84800      -32.24400        4.13900
C         -3.73300      -32.77800        4.22500
H         -3.32600      -32.55200        3.23800
H         -4.04300      -33.82300        4.27700
C         -2.73900      -32.48200        5.35300
H         -2.13600      -33.37100        5.54300
C         -1.80100      -31.32600        4.97300
O         -2.07500      -30.15300        5.21700
N         -0.70500      -31.63000        4.29700
H         -0.43800      -32.59200        4.14400
H         -0.10500      -30.88000        3.98300
