89
0 1
H         -6.70400      -25.88400        8.83500
C         -7.16100      -26.57900        8.13300
H         -6.53000      -26.65500        7.25000
H         -8.14600      -26.20700        7.86100
C         -7.28200      -27.94000        8.79100
O         -6.67400      -28.15800        9.83700
N         -8.03800      -28.88200        8.19700
C         -8.65700      -28.78100        6.88400
H         -7.97200      -28.36000        6.14600
H         -9.55900      -28.17100        6.95300
C         -9.02700      -30.21100        6.50000
H         -8.16100      -30.71100        6.06100
H         -9.87800      -30.24100        5.81900
C         -9.35600      -30.83900        7.85400
H         -9.25800      -31.92500        7.83000
H        -10.37000      -30.56000        8.14600
C         -8.35300      -30.18000        8.81000
H         -8.83600      -30.01700        9.77500
C         -7.13300      -31.08400        9.05500
O         -7.23800      -32.06300        9.78300
N         -5.97300      -30.76400        8.47500
H         -5.95000      -29.95700        7.87000
C         -4.72100      -31.49100        8.68500
H         -4.92400      -32.56000        8.60600
C         -3.72500      -31.09600        7.58500
H         -3.26300      -30.14700        7.86100
H         -2.93500      -31.84700        7.56700
S         -4.40600      -30.93500        5.90900
C         -4.08200      -31.23100       10.06500
O         -3.13600      -31.92600       10.43000
N         -4.52600      -30.20100       10.79900
H         -5.30700      -29.66400       10.44000
C         -3.94100      -29.76100       12.07300
H         -4.64300      -29.09800       12.57900
H         -3.77500      -30.63200       12.70700
C         -2.60300      -29.02300       11.91900
O         -2.44000      -27.91300       12.41500
N         -1.65300      -29.57500       11.18000
H         -1.81100      -30.49000       10.77700
H         -0.80000      -29.06900       11.00600
H         -4.84600      -26.86700       11.28200
C         -4.57100      -25.84700       11.02500
H         -4.06000      -25.38800       11.86900
H         -5.46500      -25.27500       10.78500
C         -3.65300      -25.87100        9.82700
O         -4.07100      -25.56600        8.71400
N         -2.38700      -26.21700       10.04800
H         -2.14000      -26.52700       10.98200
C         -1.35400      -26.22800        9.00000
H         -1.55800      -25.37700        8.35000
C          0.05300      -25.95100        9.57800
H          0.00900      -24.97000       10.05200
C          0.54800      -26.93400       10.64900
H         -0.15500      -26.96900       11.48000
H          0.67600      -27.93000       10.23100
H          1.50900      -26.59500       11.03500
C          1.10500      -25.85800        8.46600
H          2.05100      -25.51100        8.88300
H          1.26200      -26.83300        8.00400
H          0.77800      -25.15000        7.70400
C         -1.46600      -27.46700        8.10000
O         -0.80600      -28.48600        8.29500
N         -2.31800      -27.37500        7.07900
H         -2.90200      -26.55100        7.03000
C         -2.21500      -28.23400        5.89800
H         -2.07500      -29.25900        6.23500
C         -3.50600      -28.16400        5.07400
H         -3.74500      -27.11600        4.88400
H         -3.32800      -28.63500        4.10500
S         -4.95100      -28.97000        5.81700
C         -0.99600      -27.85000        5.03100
O         -0.64900      -26.66900        4.96200
N         -0.35800      -28.81100        4.33500
C         -0.64200      -30.24100        4.35200
H         -1.70900      -30.44100        4.25400
H         -0.26000      -30.67300        5.27900
C          0.10700      -30.83200        3.15800
H         -0.53300      -30.80400        2.27400
H          0.44300      -31.85000        3.35500
C          1.28200      -29.87000        2.97600
H          1.66500      -29.88600        1.95500
H          2.07300      -30.12600        3.68300
C          0.68100      -28.51200        3.35300
H          1.45100      -27.88600        3.80600
C          0.09700      -27.78100        2.13200
O         -1.01500      -28.05500        1.69200
N          0.85100      -26.86800        1.53700
H          1.75500      -26.63400        1.91000
H          0.46800      -26.38700        0.74000
