90
0 1
H         -6.57000       28.77700        8.45500
C         -7.05900       29.31900        7.64600
H         -6.53100       29.13700        6.71200
H         -7.05700       30.38400        7.87000
C         -8.48500       28.83900        7.52300
O         -8.91100       27.96400        8.26700
N         -9.22100       29.37800        6.55300
H         -8.79100       30.04400        5.92800
C        -10.64600       29.07800        6.32400
H        -11.20200       29.33500        7.22500
C        -11.17000       29.95400        5.18300
H        -12.20800       29.69800        4.96400
H        -11.12400       31.00200        5.48300
O        -10.37500       29.76600        4.03000
H        -10.68800       30.41200        3.36000
C        -10.94500       27.60300        6.02200
O        -12.08400       27.16900        6.17100
N         -9.95000       26.78800        5.66100
H         -9.03900       27.19100        5.51100
C        -10.09800       25.33000        5.56800
H        -10.94200       25.10800        4.91700
C         -8.84700       24.73000        4.92300
H         -7.97400       24.99600        5.52000
H         -8.94100       23.64200        4.94600
S         -8.54500       25.21100        3.20000
C        -10.41100       24.63700        6.91200
O        -10.82300       23.48100        6.90200
N        -10.26400       25.31700        8.05700
H         -9.86600       26.25000        8.03200
C        -10.75200       24.82700        9.34900
H        -10.43200       23.79200        9.47700
C        -10.10200       25.67300       10.45100
H         -9.01500       25.61400       10.37300
H        -10.41300       26.71400       10.35800
H        -10.40700       25.29600       11.42800
C        -12.29400       24.84700        9.47000
O        -12.86700       24.12200       10.28000
N        -13.00100       25.64100        8.67100
H        -14.00500       25.60300        8.72500
H        -12.54200       26.20000        7.96600
H        -17.55300       28.51500        5.17600
C        -16.97300       28.83200        4.31100
H        -16.76800       29.89900        4.38200
H        -17.52500       28.62600        3.39600
C        -15.66400       28.08000        4.28400
O        -14.60200       28.69300        4.32000
N        -15.74000       26.75300        4.20400
H        -16.64700       26.32300        4.13600
C        -14.56000       25.88500        4.15100
H        -13.97300       26.07000        5.05100
C        -14.97200       24.40500        4.17600
H        -15.89300       24.26000        3.61000
H        -14.19500       23.81500        3.68800
C        -15.14000       23.88900        5.59100
C        -14.06000       23.23700        6.21800
H        -13.14600       23.04400        5.67300
C        -14.14700       22.86500        7.57100
H        -13.30500       22.39100        8.05600
C        -15.31300       23.15500        8.30800
O        -15.34600       22.91900        9.64300
H        -14.47600       23.08100       10.03800
C        -16.41100       23.77100        7.67200
H        -17.29900       23.98400        8.24700
C        -16.32500       24.13600        6.31300
H        -17.15800       24.63200        5.83700
C        -13.67100       26.21800        2.94500
O        -14.11100       26.17500        1.79900
N        -12.41800       26.57300        3.23400
H        -12.18600       26.62900        4.21700
C        -11.41200       27.06000        2.28200
H        -10.55600       27.37700        2.87500
C        -10.91400       25.91700        1.38300
H        -11.75200       25.56900        0.77600
H        -10.17000       26.32400        0.69700
S        -10.16500       24.47600        2.19800
C        -11.81900       28.31800        1.47800
O        -11.19200       28.62700        0.46400
N        -12.83900       29.07100        1.90800
H        -13.33700       28.79400        2.74600
C        -13.24800       30.30700        1.24100
H        -13.39100       30.08500        0.18200
C        -14.59300       30.76600        1.81500
H        -14.94200       31.65000        1.28000
H        -15.33100       29.97100        1.70600
H        -14.48100       31.01100        2.87300
C        -12.17300       31.40900        1.35100
O        -11.46800       31.52700        2.35200
N        -12.05300       32.26100        0.34100
H        -12.62000       32.15200       -0.48300
H        -11.35000       32.97800        0.40500
