90
0 1
H        -19.99700       24.93300       10.40900
C        -19.55800       23.93700       10.42900
H        -18.99400       23.81200       11.35100
H        -18.90400       23.81700        9.56800
C        -20.67500       22.91400       10.37200
O        -21.83300       23.28800       10.28500
N        -20.38700       21.61400       10.41900
H        -21.17800       20.98600       10.37700
C        -19.05300       20.99300       10.50200
H        -18.46100       21.50500       11.26000
C        -19.21700       19.53400       10.94400
H        -18.24000       19.05200       11.00400
H        -19.67400       19.51400       11.93500
O        -20.04800       18.82200       10.04300
H        -19.52800       18.52700        9.28800
C        -18.25700       21.03000        9.19100
O        -17.04600       20.83900        9.21600
N        -18.91700       21.25800        8.05400
H        -19.91700       21.40500        8.09900
C        -18.31700       21.30300        6.72000
H        -17.36200       21.82900        6.77700
C        -18.05000       19.86400        6.24600
H        -17.61100       19.89200        5.24900
H        -17.30200       19.43000        6.91100
S        -19.49100       18.75500        6.23200
C        -19.22700       22.07500        5.74800
O        -20.42900       22.20400        5.98000
N        -18.66600       22.60200        4.65800
H        -17.66700       22.48000        4.52600
C        -19.43300       23.29100        3.62200
H        -20.18100       23.91800        4.11000
C        -18.49700       24.22000        2.83600
H        -19.07100       24.77300        2.09200
H        -18.02600       24.93000        3.51700
H        -17.72300       23.64400        2.32900
C        -20.17400       22.29100        2.71100
O        -19.56700       21.42600        2.07900
N        -21.49000       22.40700        2.60200
H        -21.98300       23.08500        3.16000
H        -21.98300       21.75100        2.01900
H        -13.09100       22.87700        3.68000
C        -13.53400       22.10000        4.30100
H        -13.58500       22.44000        5.33500
H        -12.93200       21.19500        4.24700
C        -14.92900       21.79800        3.81100
O        -15.89500       21.96100        4.55000
N        -15.04500       21.36600        2.55900
H        -14.20400       21.21200        2.02300
C        -16.30200       20.87100        1.99200
H        -17.10800       21.51400        2.33700
C        -16.26300       20.96500        0.45700
H        -17.11200       20.41800        0.04400
H        -16.40500       22.01200        0.18600
C        -14.98600       20.46700       -0.20300
C        -14.05400       21.39100       -0.71900
H        -14.24700       22.45300       -0.65200
C        -12.87200       20.93500       -1.33300
H        -12.15300       21.63200       -1.73600
C        -12.61800       19.55100       -1.43700
O        -11.48000       19.11500       -2.03400
H        -11.45200       18.15800       -2.08300
C        -13.54700       18.62600       -0.91800
H        -13.35900       17.56500       -0.99100
C        -14.72500       19.08700       -0.30100
H        -15.41900       18.36900        0.10500
C        -16.63200       19.45100        2.47900
O        -15.74100       18.64300        2.72900
N        -17.92100       19.11700        2.57700
H        -18.62100       19.83000        2.39100
C        -18.37300       17.81200        3.07800
H        -17.87000       17.61700        4.02600
C        -19.88200       17.86400        3.34200
H        -20.40000       17.99900        2.39100
H        -20.19000       16.90000        3.75200
S        -20.44700       19.15800        4.47800
C        -18.03500       16.62700        2.14800
O        -18.07200       15.47900        2.58200
N        -17.69200       16.88700        0.88100
H        -17.68100       17.85200        0.59600
C        -17.23500       15.89200       -0.09400
H        -17.85800       15.00200        0.01400
C        -17.47500       16.45900       -1.50200
H        -18.52600       16.72100       -1.62600
H        -16.85700       17.34300       -1.66400
H        -17.21200       15.70700       -2.24800
C        -15.77200       15.43600        0.14700
O        -14.93800       15.44800       -0.75300
N        -15.41700       15.07500        1.37200
H        -16.11000       15.06900        2.10900
H        -14.46200       14.80900        1.54100
