90
0 1
H        -13.38200       25.80300       11.62100
C        -13.96400       25.29200       10.85700
H        -15.02300       25.47500       11.03100
H        -13.76600       24.22300       10.89000
C        -13.59600       25.82200        9.49200
O        -14.46900       26.15200        8.69900
N        -12.29900       25.90600        9.20700
H        -11.64100       25.56400        9.88800
C        -11.80400       26.29100        7.87800
H        -12.26700       27.23700        7.59500
C        -10.28700       26.49900        7.91300
H        -10.05700       27.33000        8.58100
H         -9.80400       25.59500        8.28800
O         -9.79200       26.78400        6.61800
H         -8.92100       27.18900        6.70200
C        -12.16000       25.24400        6.81900
O        -12.00200       24.04500        7.05200
N        -12.55300       25.68700        5.62300
H        -12.66000       26.68900        5.49400
C        -12.76300       24.81200        4.46400
H        -13.48700       24.04300        4.73500
C        -13.34100       25.63700        3.31000
H        -12.61300       26.40100        3.03400
H        -13.47400       24.98000        2.44900
S        -14.92300       26.46000        3.63300
C        -11.48300       24.08300        4.00100
O        -11.57500       23.13500        3.22700
N        -10.29800       24.49800        4.46700
H        -10.28500       25.29100        5.09500
C         -9.03600       23.78600        4.24800
H         -9.01800       23.42600        3.21800
C         -7.88800       24.78800        4.42200
H         -6.94300       24.30500        4.16600
H         -8.03500       25.64300        3.76100
H         -7.84100       25.12700        5.45700
C         -8.85100       22.54400        5.15500
O         -7.84600       21.85000        5.05700
N         -9.77000       22.24600        6.06700
H         -9.63100       21.42600        6.63200
H        -10.59700       22.82000        6.17300
H        -13.50500       31.21400        4.08300
C        -13.56200       30.14900        3.86800
H        -12.62300       29.81300        3.43100
H        -14.37700       29.95400        3.17200
C        -13.81000       29.38900        5.14900
O        -13.01500       28.53000        5.51500
N        -14.91500       29.70200        5.82200
H        -15.52700       30.40200        5.43400
C        -15.36000       29.02000        7.04100
H        -14.54300       28.41500        7.43400
C        -15.69500       30.06800        8.11200
H        -14.82600       30.71100        8.26000
H        -16.51300       30.69800        7.76000
C        -16.07100       29.45900        9.44800
C        -15.06000       29.02600       10.32800
H        -14.02100       29.15100       10.06000
C        -15.40300       28.40800       11.54600
H        -14.64100       28.05600       12.22300
C        -16.75900       28.21500       11.87900
O        -17.08900       27.53500       13.00600
H        -17.91100       27.04000       12.87500
C        -17.77100       28.68300       11.01400
H        -18.80700       28.55600       11.29000
C        -17.42600       29.29900        9.79600
H        -18.20100       29.64000        9.12300
C        -16.53500       28.07600        6.73700
O        -17.68100       28.50400        6.59600
N        -16.25300       26.77900        6.62800
H        -15.32100       26.48700        6.89600
C        -17.21200       25.72000        6.30900
H        -17.97200       26.13000        5.64200
C        -16.48800       24.60200        5.53800
H        -15.52200       24.39700        6.00000
H        -17.08600       23.69200        5.60900
S        -16.27400       24.94100        3.76500
C        -17.96500       25.23600        7.56600
O        -17.95200       24.05300        7.89700
N        -18.61200       26.17700        8.26700
H        -18.53300       27.11800        7.89900
C        -19.42200       26.02000        9.48800
H        -19.75500       27.02100        9.75800
C        -20.69400       25.22800        9.15400
H        -21.21200       25.69000        8.31300
H        -20.44200       24.19800        8.90100
H        -21.35800       25.22500       10.02000
C        -18.70500       25.47900       10.75000
O        -19.02800       25.89300       11.86100
N        -17.71300       24.60900       10.63900
H        -17.47700       24.24500        9.72500
H        -17.26400       24.27500       11.47400
