96
0 1
H        -19.60100      -13.98800      -12.77000
C        -19.56300      -14.88200      -13.39000
H        -19.37100      -15.75200      -12.76400
H        -18.77200      -14.78600      -14.13100
C        -20.88600      -15.06200      -14.09500
O        -21.54500      -16.08100      -13.91200
N        -21.27300      -14.06900      -14.89600
H        -20.65000      -13.28500      -15.01200
C        -22.46600      -14.10900      -15.75200
H        -23.13800      -14.86500      -15.35400
C        -23.25500      -12.77700      -15.67900
H        -23.58200      -12.66600      -14.64400
C        -22.41600      -11.53200      -16.03100
H        -22.99600      -10.62700      -15.85200
H        -21.52400      -11.48000      -15.40900
H        -22.11900      -11.55200      -17.08000
C        -24.51900      -12.86000      -16.56400
H        -25.00100      -13.82200      -16.39900
H        -24.23800      -12.79700      -17.61500
C        -25.56200      -11.77600      -16.26800
H        -25.83600      -11.80000      -15.21300
H        -25.17300      -10.79100      -16.52400
H        -26.45300      -11.96300      -16.86900
C        -22.10400      -14.55800      -17.17500
O        -21.40400      -13.86500      -17.91000
N        -22.62000      -15.71500      -17.58400
H        -23.26400      -16.19000      -16.96200
C        -22.49400      -16.27400      -18.93000
H        -21.51600      -16.01000      -19.33700
C        -22.56200      -17.80800      -18.83500
H        -23.32900      -18.10300      -18.11700
H        -22.85500      -18.20100      -19.80900
S        -20.97700      -18.58900      -18.40900
C        -23.54800      -15.64400      -19.86200
O        -24.41500      -16.33000      -20.40000
N        -23.49200      -14.31100      -19.98700
H        -22.72200      -13.86600      -19.50000
C        -24.45500      -13.40600      -20.63500
H        -24.08000      -12.39500      -20.47400
C        -24.43800      -13.63400      -22.15400
H        -24.83700      -14.62000      -22.39300
H        -25.05300      -12.87700      -22.64100
H        -23.41700      -13.55700      -22.53000
C        -25.88700      -13.39900      -20.04800
O        -26.49900      -12.34400      -19.94100
N        -26.44000      -14.52400      -19.61800
H        -25.94500      -15.39700      -19.74000
H        -27.37300      -14.48900      -19.24500
H        -27.40400      -16.28300      -17.44800
C        -27.47500      -16.32500      -16.36200
H        -28.09900      -17.17000      -16.07700
H        -27.90500      -15.40000      -15.98400
C        -26.09200      -16.50700      -15.78600
O        -25.10700      -16.44800      -16.51200
N        -26.00800      -16.71700      -14.47500
H        -26.86200      -16.78700      -13.94700
C        -24.74000      -17.02000      -13.79300
H        -23.99600      -16.30300      -14.12600
C        -24.88800      -16.85100      -12.26000
H        -25.87900      -17.19900      -11.96100
C        -23.85800      -17.66900      -11.45900
H        -24.03800      -18.73400      -11.59800
H        -22.84400      -17.41500      -11.77300
H        -23.96100      -17.45700      -10.39400
C        -24.72800      -15.37300      -11.82700
H        -23.72500      -15.02900      -12.08500
H        -24.82700      -15.31900      -10.74200
C        -25.74500      -14.39100      -12.42300
H        -26.75900      -14.75700      -12.25900
H        -25.63400      -13.42100      -11.93700
H        -25.56600      -14.26000      -13.49000
C        -24.24500      -18.40700      -14.23100
O        -25.01700      -19.36400      -14.26200
N        -22.95200      -18.52700      -14.54400
H        -22.36700      -17.70000      -14.46100
C        -22.35800      -19.71200      -15.18000
H        -22.86700      -19.88500      -16.13000
C        -20.88100      -19.42200      -15.46800
H        -20.37100      -19.27500      -14.51600
H        -20.44200      -20.30100      -15.94300
S        -20.52200      -17.98600      -16.51400
C        -22.46800      -21.01700      -14.36300
O        -22.28300      -22.09600      -14.91600
N        -22.76000      -20.93500      -13.06000
H        -22.91000      -20.01900      -12.67400
C        -23.01400      -22.09200      -12.19700
H        -22.28100      -22.86500      -12.43200
C        -22.79400      -21.65100      -10.74300
H        -22.89500      -22.51400      -10.08400
H        -21.79200      -21.23600      -10.62600
H        -23.53600      -20.90400      -10.46000
C        -24.41000      -22.73300      -12.39000
O        -24.71100      -23.75500      -11.78600
N        -25.29700      -22.15500      -13.19400
H        -25.07000      -21.29900      -13.68100
H        -26.19200      -22.60000      -13.31000
