96
0 1
H        -15.63400      -19.60300      -11.73100
C        -16.28200      -20.47700      -11.67700
H        -17.14700      -20.24900      -11.05700
H        -15.72800      -21.31300      -11.25400
C        -16.73800      -20.83100      -13.07200
O        -16.37700      -20.15700      -14.02600
N        -17.54900      -21.88500      -13.18300
H        -17.77600      -22.39000      -12.34200
C        -18.03600      -22.42400      -14.46900
H        -17.17400      -22.69300      -15.08000
C        -18.88300      -23.69900      -14.21500
H        -19.73100      -23.41100      -13.59000
C        -19.47000      -24.28700      -15.51100
H        -18.68000      -24.48700      -16.23400
H        -19.99600      -25.21800      -15.29700
H        -20.18800      -23.59900      -15.95600
C        -18.11100      -24.79800      -13.44400
H        -18.77900      -25.64600      -13.28800
H        -17.84300      -24.42500      -12.45600
C        -16.83400      -25.31600      -14.12400
H        -17.06600      -25.74200      -15.10000
H        -16.11000      -24.51000      -14.23900
H        -16.39000      -26.09400      -13.50300
C        -18.82800      -21.38300      -15.27900
O        -18.73400      -21.35600      -16.50400
N        -19.59100      -20.52100      -14.60100
H        -19.59500      -20.59500      -13.59800
C        -20.30400      -19.38700      -15.19000
H        -20.59600      -19.61900      -16.20300
C        -21.59400      -19.14800      -14.39800
H        -21.32400      -18.85000      -13.38400
H        -22.14400      -18.32200      -14.84900
S        -22.70200      -20.59000      -14.29600
C        -19.38000      -18.16700      -15.29700
O        -19.38100      -17.29000      -14.43400
N        -18.56500      -18.14100      -16.35300
H        -18.63800      -18.89600      -17.02800
C        -17.52200      -17.14200      -16.56100
H        -16.90500      -17.11300      -15.66100
C        -16.64000      -17.60700      -17.72600
H        -15.82300      -16.90100      -17.87600
H        -16.22300      -18.59000      -17.50300
H        -17.23400      -17.66900      -18.64000
C        -18.08400      -15.72500      -16.80100
O        -19.04700      -15.52500      -17.53700
N        -17.46000      -14.70800      -16.22400
H        -16.67700      -14.87500      -15.61400
H        -17.81800      -13.78000      -16.38000
H        -22.28800      -14.79500      -16.77800
C        -22.27700      -15.77700      -16.31000
H        -23.11500      -15.86600      -15.62000
H        -21.34000      -15.90800      -15.77200
C        -22.39900      -16.83500      -17.37900
O        -23.36600      -17.58500      -17.40400
N        -21.41500      -16.90800      -18.26900
H        -20.62100      -16.28400      -18.14900
C        -21.37100      -17.87700      -19.37100
H        -22.37100      -17.95800      -19.80100
C        -20.41500      -17.39300      -20.49100
H        -19.40800      -17.31000      -20.07600
C        -20.38200      -18.41400      -21.64700
H        -20.07700      -19.39700      -21.29000
H        -21.36500      -18.49000      -22.11200
H        -19.65300      -18.11200      -22.39900
C        -20.83700      -15.99800      -21.01700
H        -20.87700      -15.29500      -20.18400
H        -21.83600      -16.06000      -21.45100
C        -19.88100      -15.39200      -22.05400
H        -18.86200      -15.39800      -21.66700
H        -19.92400      -15.95100      -22.98800
H        -20.17800      -14.36300      -22.25600
C        -20.98500      -19.25400      -18.81100
O        -19.80300      -19.56000      -18.67100
N        -21.97900      -20.07600      -18.45900
H        -22.91200      -19.68600      -18.48300
C        -21.83200      -21.39500      -17.81200
H        -21.11300      -21.30800      -17.01000
C        -23.15800      -21.77500      -17.14000
H        -23.89500      -21.95900      -17.92300
H        -23.02100      -22.71100      -16.59700
S        -23.85000      -20.54600      -15.99000
C        -21.25300      -22.51700      -18.70500
O        -21.68900      -23.66200      -18.62800
N        -20.27400      -22.19200      -19.55400
H        -19.92300      -21.24300      -19.50300
C        -19.55100      -23.13300      -20.41200
H        -20.21000      -23.96700      -20.66000
C        -19.19800      -22.39900      -21.71200
H        -18.70300      -23.08900      -22.39700
H        -20.10600      -22.02400      -22.18500
H        -18.52600      -21.56600      -21.50000
C        -18.29200      -23.73800      -19.74900
O        -17.69600      -24.66800      -20.28100
N        -17.84200      -23.23500      -18.60600
H        -17.01100      -23.63600      -18.20700
H        -18.32100      -22.46800      -18.15200
