96
0 1
H        -34.44600      -13.11900      -12.65500
C        -33.44200      -13.07000      -13.07300
H        -33.49500      -12.85700      -14.14000
H        -32.93600      -14.02000      -12.90900
C        -32.67700      -11.96600      -12.38500
O        -32.31500      -10.97600      -13.00900
N        -32.41200      -12.13400      -11.09400
H        -32.72200      -12.99700      -10.65600
C        -31.61300      -11.20000      -10.28900
H        -31.87300      -10.18100      -10.57800
C        -31.93400      -11.35700       -8.77900
H        -31.65900      -12.36700       -8.46900
C        -31.11100      -10.35000       -7.95000
H        -31.27100      -10.51600       -6.88500
H        -30.04400      -10.47500       -8.13400
H        -31.40000       -9.32900       -8.20200
C        -33.44800      -11.16700       -8.50900
H        -34.01500      -11.87200       -9.11600
H        -33.74500      -10.15800       -8.80200
C        -33.86900      -11.40500       -7.05300
H        -34.95700      -11.39000       -6.98800
H        -33.50800      -12.37800       -6.71600
H        -33.47600      -10.62200       -6.40600
C        -30.13000      -11.42000      -10.62000
O        -29.45700      -12.21800       -9.97200
N        -29.64000      -10.77500      -11.68200
H        -30.30300      -10.25000      -12.23900
C        -28.28900      -10.94600      -12.23600
H        -28.05900      -11.99900      -12.31100
C        -28.27200      -10.39800      -13.66800
H        -28.42400       -9.31900      -13.62000
H        -27.28900      -10.57300      -14.10500
S        -29.52900      -11.09200      -14.78700
C        -27.18500      -10.36400      -11.33700
O        -26.67400       -9.27000      -11.57400
N        -26.81200      -11.11000      -10.29500
H        -27.29800      -11.99100      -10.14800
C        -25.78900      -10.72100       -9.33000
H        -26.02800       -9.71800       -8.97200
C        -25.86300      -11.68300       -8.13800
H        -26.86300      -11.65700       -7.70300
H        -25.64400      -12.70000       -8.46700
H        -25.13700      -11.38800       -7.37900
C        -24.37600      -10.68200       -9.94800
O        -23.97400      -11.56300      -10.70200
N        -23.57600       -9.68200       -9.60100
H        -22.65300       -9.65300      -10.00100
H        -23.91000       -8.95200       -8.99500
H        -24.84400      -10.90800      -13.44000
C        -24.47700      -11.64700      -14.15000
H        -23.39500      -11.72300      -14.06500
H        -24.74900      -11.35500      -15.16300
C        -25.09000      -12.99100      -13.84200
O        -25.69600      -13.61300      -14.70600
N        -24.94900      -13.44400      -12.60000
H        -24.45800      -12.85500      -11.93400
C        -25.54400      -14.69300      -12.10800
H        -25.46200      -15.45000      -12.88900
C        -24.77900      -15.20800      -10.86400
H        -24.91000      -14.48300      -10.05900
C        -25.36100      -16.54900      -10.37900
H        -24.76900      -16.93100       -9.54600
H        -26.38400      -16.41300      -10.02700
H        -25.36000      -17.28300      -11.18500
C        -23.25400      -15.34300      -11.09400
H        -22.79500      -15.70600      -10.17300
H        -22.83300      -14.35500      -11.28400
C        -22.83100      -16.27500      -12.23900
H        -23.22300      -15.91200      -13.18900
H        -21.74200      -16.29500      -12.29900
H        -23.18800      -17.28800      -12.05900
C        -27.04000      -14.46500      -11.84500
O        -27.43200      -14.10400      -10.73900
N        -27.86600      -14.59700      -12.88700
H        -27.43600      -14.76000      -13.78900
C        -29.30600      -14.30000      -12.87900
H        -29.47600      -13.34300      -12.40600
C        -29.78500      -14.15600      -14.32800
H        -29.70100      -15.13100      -14.81200
H        -30.83900      -13.87900      -14.33000
S        -28.87200      -12.94800      -15.34000
C        -30.13100      -15.30000      -12.05100
O        -30.76000      -16.21200      -12.58700
N        -30.13100      -15.12000      -10.72900
H        -29.56600      -14.36100      -10.35600
C        -30.85300      -15.96600       -9.78400
H        -30.59300      -17.00400       -9.99500
C        -30.36600      -15.63100       -8.36900
H        -30.59800      -14.59100       -8.13300
H        -30.85700      -16.28100       -7.64400
H        -29.28600      -15.77700       -8.30600
C        -32.38400      -15.82500       -9.91100
O        -32.92400      -14.73100      -10.05300
N        -33.11800      -16.92500       -9.81300
H        -32.67500      -17.82200       -9.71000
H        -34.11800      -16.83700       -9.89400
