90
0 1
H        -16.22400       14.13800       12.30600
C        -15.34000       13.52800       12.48600
H        -15.50400       12.89900       13.36000
H        -14.47700       14.17100       12.65500
C        -15.08400       12.65100       11.28500
O        -15.07900       11.43000       11.40200
N        -14.86100       13.27100       10.12800
H        -14.85400       14.28100       10.11100
C        -14.59000       12.58700        8.85900
H        -14.05300       11.66400        9.07100
C        -15.91100       12.23700        8.16200
H        -16.48400       11.55200        8.78900
H        -16.49300       13.14900        8.01600
O        -15.67600       11.64100        6.90200
H        -15.22200       10.78800        7.05200
C        -13.72200       13.44100        7.93400
O        -13.86100       14.66200        7.90600
N        -12.85700       12.79700        7.14500
H        -12.83500       11.79000        7.17900
C        -12.03800       13.46700        6.12700
H        -11.56800       14.33900        6.58500
C        -10.91800       12.51600        5.68400
H        -11.35800       11.59700        5.29900
H        -10.36700       12.98100        4.86500
S         -9.73300       12.11800        7.00500
C        -12.86000       13.99600        4.93200
O        -12.35500       14.80900        4.16400
N        -14.13200       13.59700        4.80200
H        -14.47000       12.86500        5.41100
C        -15.08900       14.17500        3.85800
H        -14.58300       14.33900        2.90600
C        -16.20600       13.14600        3.63900
H        -16.74400       12.97300        4.57200
H        -16.90500       13.51900        2.88900
H        -15.78000       12.20500        3.28800
C        -15.65600       15.54300        4.30700
O        -16.42900       16.16400        3.58500
N        -15.32300       16.03900        5.49600
H        -15.69500       16.93500        5.75700
H        -14.69200       15.53500        6.10300
H        -12.82300        9.49400       13.35000
C        -12.15700        9.75700       12.53000
H        -11.12200        9.59700       12.83100
H        -12.30500       10.80100       12.25900
C        -12.46700        8.88300       11.33900
O        -11.61200        8.13800       10.87300
N        -13.69000        8.98300       10.82400
H        -14.31900        9.67200       11.22700
C        -14.14300        8.25400        9.63600
H        -13.81500        7.21800        9.72200
C        -15.68200        8.25700        9.60100
H        -16.05200        7.74100       10.48800
H        -16.03200        9.28900        9.65500
C        -16.28600        7.59000        8.37600
C        -17.08800        8.33500        7.48800
H        -17.28500        9.38100        7.68200
C        -17.63500        7.72500        6.34300
H        -18.24600        8.30200        5.66600
C        -17.37500        6.36300        6.08100
O        -17.88900        5.76800        4.97400
H        -18.51000        6.33500        4.51500
C        -16.57200        5.61700        6.96800
H        -16.38400        4.57500        6.75800
C        -16.03300        6.22800        8.11700
H        -15.43000        5.64600        8.80000
C        -13.50600        8.83400        8.36100
O        -14.12100        9.61500        7.63200
N        -12.23800        8.50700        8.10200
H        -11.75400        7.94900        8.79700
C        -11.44300        9.10800        7.02400
H        -11.73900       10.15300        6.99100
C         -9.95700        9.10900        7.40500
H         -9.86000        9.34300        8.46600
H         -9.54900        8.11100        7.23800
S         -8.94800       10.30800        6.48400
C        -11.74900        8.56900        5.60600
O        -10.85300        8.36100        4.79200
N        -13.03000        8.36200        5.29300
H        -13.71800        8.57100        6.00200
C        -13.49600        8.36500        3.91000
H        -12.86000        7.70500        3.31700
C        -14.93100        7.82800        3.87500
H        -15.58500        8.48600        4.44800
H        -15.28500        7.78400        2.84400
H        -14.96200        6.82500        4.30200
C        -13.40100        9.79100        3.32500
O        -13.44600       10.77800        4.05400
N        -13.29400        9.92600        2.01000
H        -13.24600        9.11500        1.41700
H        -13.22700       10.85800        1.63400
