99
0 1
H         -7.76200       56.91800       47.59700
C         -8.75100       56.47300       47.69400
H         -9.43800       56.95200       46.99900
H         -9.10800       56.59900       48.71400
C         -8.66100       55.00000       47.37400
O         -7.58700       54.50000       47.05900
N         -9.79300       54.30200       47.44100
H        -10.64400       54.78900       47.68000
C         -9.92300       52.86300       47.16000
H         -9.10200       52.33900       47.65100
C        -11.23400       52.35300       47.77300
H        -11.33200       51.28100       47.59100
H        -11.22100       52.52600       48.85000
O        -12.33400       53.03500       47.20400
H        -12.36700       52.76600       46.27300
C         -9.82900       52.54700       45.65500
O        -10.79800       52.10500       45.03600
N         -8.67200       52.81700       45.05200
H         -7.93300       53.21800       45.61900
C         -8.39700       52.53700       43.64400
H         -9.19800       52.96700       43.04300
C         -7.07300       53.21200       43.26100
H         -7.08000       54.24400       43.61500
H         -6.26000       52.69200       43.76900
S         -6.72600       53.22100       41.48300
C         -8.33600       51.02400       43.36100
O         -7.69200       50.27700       44.10100
N         -8.94200       50.57300       42.26000
H         -9.45100       51.23900       41.68700
C         -8.86100       49.19700       41.76800
H         -8.94900       48.52200       42.62100
C        -10.06600       48.94200       40.85100
H        -10.03300       47.91900       40.47300
H        -10.99200       49.08200       41.41000
H        -10.05600       49.63400       40.01100
C         -7.49300       48.90800       41.10400
O         -7.37900       48.69600       39.90000
N         -6.41300       48.94500       41.87200
H         -6.51500       49.17600       42.85200
H         -5.51200       48.77500       41.45700
H        -13.64800       59.27100       39.36800
C        -13.92700       58.93100       40.36400
H        -15.00900       58.96100       40.47700
H        -13.46500       59.57300       41.11200
C        -13.44100       57.51500       40.56500
O        -12.64600       57.25600       41.46200
N        -13.91400       56.59400       39.72700
H        -14.54700       56.88300       38.99900
C        -13.50400       55.18700       39.76500
H        -13.50700       54.86000       40.80600
C        -14.53000       54.32100       39.02100
H        -15.51600       54.48800       39.45800
H        -14.57500       54.63500       37.97600
C        -14.22400       52.83600       39.08800
C        -14.45400       52.12500       40.28200
H        -14.86200       52.63000       41.14600
C        -14.14100       50.75400       40.35800
H        -14.30400       50.20000       41.27100
C        -13.60600       50.08900       39.23600
O        -13.30800       48.76600       39.31500
H        -12.94900       48.43100       38.49400
C        -13.38400       50.79900       38.03600
H        -12.97500       50.29900       37.17400
C        -13.68500       52.17300       37.96900
H        -13.48400       52.72500       37.06000
C        -12.07000       55.00300       39.23600
O        -11.84000       54.76500       38.05100
N        -11.09300       55.15100       40.13000
H        -11.35500       55.45600       41.05700
C         -9.69000       54.85100       39.86200
H         -9.38800       55.37000       38.95100
C         -8.85700       55.39500       41.02800
H         -9.04100       56.46900       41.09100
H         -9.21300       54.94800       41.95500
S         -7.06000       55.15900       40.93300
C         -9.48300       53.34100       39.65200
O         -9.94700       52.53200       40.45800
N         -8.75200       52.96500       38.60100
H         -8.37900       53.67900       37.99200
C         -8.45000       51.57700       38.22700
H         -8.37100       50.99100       39.14100
C         -9.60500       50.97900       37.38000
H        -10.49100       50.96800       38.01600
C         -9.93600       51.83000       36.13700
H         -9.07000       51.89300       35.47700
H        -10.77000       51.39700       35.58900
H        -10.23000       52.83700       36.43700
C         -9.30000       49.52000       36.96700
H         -8.58100       49.51200       36.14600
H         -8.85200       49.00100       37.81100
C        -10.53300       48.70800       36.55300
H        -11.23800       48.66400       37.38200
H        -11.01400       49.15200       35.68200
H        -10.22500       47.69300       36.30100
C         -7.08300       51.50300       37.52900
O         -6.69700       52.40900       36.79800
N         -6.32600       50.43800       37.74900
H         -5.42800       50.38800       37.29800
H         -6.64900       49.70700       38.37100
