99
0 1
H        -17.43300       51.57000       31.89800
C        -16.96000       51.28800       30.95900
H        -17.48400       51.75400       30.12600
H        -16.98900       50.20500       30.84500
C        -15.52100       51.74500       30.96100
O        -14.61500       50.92500       30.86100
N        -15.31000       53.05300       31.11800
H        -16.10400       53.65600       31.26900
C        -13.98200       53.69500       31.09300
H        -13.55600       53.57700       30.09700
C        -14.12900       55.19400       31.37400
H        -13.14100       55.65300       31.43600
H        -14.68100       55.65900       30.55600
O        -14.83000       55.40900       32.58400
H        -14.95600       56.37800       32.67200
C        -12.98200       53.08800       32.08200
O        -11.79000       53.05700       31.79000
N        -13.46200       52.50800       33.18800
H        -14.45000       52.60700       33.36000
C        -12.66600       51.78300       34.17900
H        -12.06700       52.49800       34.73300
C        -13.62400       51.09800       35.15700
H        -14.22800       50.38100       34.60000
H        -13.03300       50.53400       35.88100
S        -14.74700       52.17800       36.08300
C        -11.70600       50.72800       33.59100
O        -10.67200       50.46000       34.20100
N        -12.02500       50.14100       32.43100
H        -12.87800       50.42500       31.96200
C        -11.17400       49.16500       31.74500
H        -10.85900       48.41000       32.46600
C        -12.03000       48.48000       30.67200
H        -12.90300       48.01500       31.13200
H        -12.36000       49.21200       29.93300
H        -11.44100       47.71000       30.17200
C         -9.88700       49.76300       31.13000
O         -8.94900       49.03400       30.83100
N         -9.79600       51.07400       30.93500
H        -10.55600       51.68700       31.20000
H         -8.94400       51.44100       30.54500
H        -10.03900       51.42500       38.59000
C         -9.84300       51.35600       37.52100
H        -10.64400       50.80400       37.03300
H         -8.89500       50.84800       37.35200
C         -9.76800       52.74700       36.94200
O         -9.90600       53.72800       37.66200
N         -9.58100       52.83800       35.62800
H         -9.51500       51.96900       35.11000
C         -9.43200       54.08900       34.86500
H         -8.77300       54.74500       35.43500
C         -8.73300       53.77400       33.53100
H         -9.40800       53.18400       32.91200
H         -8.54200       54.71000       33.00300
C         -7.41800       53.02500       33.66500
C         -6.23600       53.72700       33.97200
H         -6.26400       54.79900       34.11200
C         -5.01600       53.03400       34.09500
H         -4.10300       53.56100       34.32800
C         -4.97500       51.63700       33.90700
O         -3.79500       50.97500       34.01800
H         -3.89000       50.04400       33.81200
C         -6.16000       50.93200       33.60300
H         -6.13600       49.86300       33.45600
C         -7.37800       51.62700       33.48700
H         -8.28200       51.08200       33.25700
C        -10.76000       54.85900       34.66900
O        -11.06200       55.33300       33.57600
N        -11.59000       54.94200       35.71500
H        -11.23400       54.57800       36.59300
C        -13.00800       55.32800       35.69200
H        -13.48900       54.77600       34.88500
C        -13.65200       54.87500       37.01100
H        -13.19300       55.44100       37.82300
H        -14.70900       55.14200       36.99000
S        -13.53600       53.11200       37.42800
C        -13.28500       56.82700       35.41600
O        -13.99800       57.49300       36.16700
N        -12.72500       57.37800       34.33900
H        -12.14100       56.77500       33.76900
C        -12.96200       58.75000       33.87400
H        -12.78700       59.43100       34.70800
C        -11.96700       59.10200       32.74000
H        -12.06900       58.34800       31.95600
C        -12.28000       60.47800       32.12000
H        -11.58200       60.69900       31.31400
H        -13.27900       60.48600       31.68400
H        -12.20700       61.25900       32.87800
C        -10.51000       59.06700       33.26600
H        -10.35600       59.88700       33.96800
H        -10.33700       58.13500       33.80300
C         -9.44200       59.14100       32.16600
H         -9.45100       60.11800       31.68500
H         -8.45900       58.98500       32.61100
H         -9.62000       58.36300       31.42300
C        -14.42900       58.89800       33.43600
O        -14.95200       58.07900       32.68300
N        -15.11200       59.94400       33.87900
H        -14.68600       60.58800       34.52400
H        -16.07600       60.03400       33.60700
