91
0 1
H        -80.29400       10.50500       46.48300
C        -80.56100       11.46100       46.03700
H        -81.62900       11.48000       45.82500
H        -80.00300       11.61000       45.11400
C        -80.23400       12.57400       47.00200
O        -81.11100       13.33100       47.39900
N        -78.96300       12.68900       47.38200
H        -78.28600       12.03900       47.00900
C        -78.45200       13.74100       48.27800
H        -79.15200       13.86800       49.10400
C        -77.09100       13.33200       48.87400
H        -76.71600       14.14900       49.49200
C        -77.17900       12.07700       49.74100
H        -77.90300       12.23000       50.54100
H        -77.47700       11.21800       49.14000
H        -76.20200       11.87800       50.18200
O        -76.17000       13.07800       47.83900
H        -76.09100       13.91300       47.35900
C        -78.35400       15.09100       47.55300
O        -77.25600       15.57300       47.27000
N        -79.49600       15.69000       47.20600
H        -80.36700       15.20800       47.40900
C        -79.56700       16.90800       46.39800
H        -78.59800       17.39300       46.41900
C        -79.92400       16.54300       44.94200
H        -80.98000       16.26600       44.92700
H        -79.81700       17.43300       44.32100
S        -79.00700       15.17000       44.16100
C        -80.55000       17.93000       46.98200
O        -81.69000       17.59800       47.29700
N        -80.09800       19.17600       47.13600
H        -79.13500       19.35500       46.86500
C        -80.88500       20.33900       47.58000
H        -81.81600       20.39400       47.01300
C        -81.22200       20.23800       49.07500
H        -80.33500       19.93500       49.63400
H        -81.55200       21.21100       49.44100
O        -82.26300       19.30900       49.28800
H        -82.15400       18.57500       48.65300
C        -80.11100       21.63800       47.34000
O        -80.59100       22.53800       46.65900
N        -78.87400       21.73900       47.80900
H        -78.45100       20.95700       48.29600
H        -78.35900       22.58600       47.63700
H        -77.57700       19.03600       39.25500
C        -78.25100       19.46400       39.99700
H        -79.00800       18.73000       40.26700
H        -78.72600       20.35400       39.58800
C        -77.45700       19.83800       41.22400
O        -76.25300       19.61700       41.27600
N        -78.13000       20.38800       42.23200
H        -79.12700       20.51600       42.13200
C        -77.55400       20.82000       43.52200
H        -76.60800       21.32200       43.32000
C        -78.48800       21.84400       44.19200
H        -78.13000       22.05000       45.19900
C        -78.54100       23.16700       43.43100
H        -79.17500       23.87100       43.97200
H        -77.53900       23.58700       43.35100
H        -78.95000       23.01600       42.43100
O        -79.80600       21.34600       44.24600
H        -80.27900       21.88700       44.90100
C        -77.22300       19.64100       44.45600
O        -77.60400       19.60600       45.62800
N        -76.53200       18.62900       43.93000
H        -76.22700       18.72700       42.96600
C        -76.28400       17.35100       44.59400
H        -77.15800       17.10600       45.17500
C        -76.19900       16.24400       43.54700
H        -75.44000       16.50100       42.80700
H        -75.90400       15.31300       44.03300
S        -77.79500       15.98200       42.72100
C        -75.13000       17.38300       45.60700
O        -74.02500       16.91100       45.34800
N        -75.43000       17.91300       46.79500
H        -76.35300       18.32400       46.87500
C        -74.61900       17.87100       48.01600
H        -73.61600       18.21500       47.75900
C        -75.22400       18.88100       49.01700
H        -74.66300       18.85000       49.95100
H        -75.12500       19.88500       48.60500
C        -76.69800       18.64800       49.32100
O        -77.57200       19.34200       48.82900
N        -77.02900       17.66700       50.12100
H        -76.29800       17.03400       50.43200
H        -78.00100       17.53600       50.32800
C        -74.43800       16.44500       48.61200
O        -74.66900       16.21000       49.79600
N        -74.04400       15.46200       47.81600
H        -73.94300       14.53600       48.19900
H        -73.84500       15.66100       46.84300
