91
0 1
H        -83.12700       19.97600       52.89800
C        -82.35000       19.23000       53.06300
H        -82.27200       19.01200       54.12700
H        -81.39900       19.60600       52.69000
C        -82.71200       17.96700       52.31900
O        -83.75500       17.91400       51.67300
N        -81.86300       16.94900       52.43400
H        -81.05700       17.06100       53.02800
C        -82.03200       15.64300       51.77400
H        -83.01200       15.61200       51.31300
C        -81.00000       15.44600       50.65300
H        -79.99600       15.53700       51.06700
C        -81.12300       14.10200       49.93500
H        -80.42100       14.06200       49.10200
H        -80.88800       13.28700       50.61900
H        -82.13800       13.97300       49.55500
O        -81.18200       16.43600       49.66800
H        -80.47800       16.34200       49.02300
C        -81.95800       14.51800       52.80200
O        -81.05100       14.50300       53.63000
N        -82.90500       13.57800       52.75200
H        -83.56500       13.60100       51.98000
C        -83.09600       12.53000       53.76200
H        -82.13500       12.29900       54.22300
C        -84.07400       12.99100       54.86300
H        -85.09000       12.86200       54.49400
H        -83.97900       12.31500       55.71400
S        -83.93800       14.69400       55.48300
C        -83.65000       11.25500       53.10700
O        -84.39400       11.34000       52.13000
N        -83.33200       10.08400       53.66200
H        -82.75300       10.07000       54.49000
C        -83.92100        8.79900       53.26600
H        -84.98200        8.94600       53.06800
C        -83.25800        8.28600       51.98200
H        -83.18300        9.09500       51.25400
H        -82.25300        7.92600       52.21100
O        -84.02400        7.23800       51.42100
H        -84.65000        7.62400       50.79900
C        -83.79000        7.77400       54.40200
O        -83.03700        7.98100       55.34900
N        -84.50600        6.66000       54.33800
H        -84.41400        5.98900       55.08300
H        -85.05800        6.47200       53.51700
H        -89.74700       16.77000       49.76600
C        -89.63900       16.17600       48.86000
H        -89.71200       16.81800       47.98400
H        -90.42400       15.42200       48.82700
C        -88.29500       15.49100       48.87200
O        -88.23000       14.26600       48.87900
N        -87.22300       16.28200       48.87800
H        -87.35300       17.28400       48.86400
C        -85.83000       15.80200       48.96700
H        -85.67400       15.01300       48.23100
C        -84.85200       16.95000       48.67000
H        -83.83600       16.63800       48.91600
C        -84.89300       17.35900       47.19900
H        -85.88500       17.72400       46.93200
H        -84.16400       18.15200       47.02700
H        -84.63900       16.50400       46.57200
O        -85.19300       18.08700       49.43100
H        -84.64800       18.07300       50.24400
C        -85.50100       15.20800       50.33600
O        -84.75700       14.23100       50.42000
N        -86.06900       15.75200       51.41500
H        -86.65300       16.56300       51.28800
C        -86.09400       15.07800       52.70800
H        -85.18000       14.50900       52.81600
C        -86.11100       16.10000       53.84700
H        -85.32200       16.83300       53.67800
H        -87.07000       16.62000       53.83700
S        -85.86700       15.37400       55.49300
C        -87.26600       14.09100       52.73600
O        -88.42400       14.50300       52.74600
N        -86.95600       12.79400       52.68300
H        -85.98100       12.52600       52.62900
C        -87.91500       11.72300       52.43100
H        -88.92300       12.09700       52.62700
C        -87.80300       11.35900       50.93700
H        -87.38600       12.19700       50.37700
H        -87.13000       10.51300       50.80200
C        -89.15400       11.02300       50.34300
O        -89.79600       10.06000       50.72600
N        -89.64000       11.81500       49.41900
H        -89.12400       12.65000       49.15000
H        -90.54300       11.59000       49.05000
C        -87.68800       10.51400       53.36300
O        -86.73200       10.45900       54.13400
N        -88.55900        9.51700       53.30700
H        -88.43600        8.73100       53.92200
H        -89.30600        9.54400       52.62400
