119
1 1
H          6.23700       27.00800       25.70900
C          6.93800       27.84000       25.75300
H          6.50700       28.65300       26.33400
H          7.15200       28.18600       24.74300
C          8.21700       27.37700       26.40700
O          9.29000       27.50600       25.81700
N          8.11900       26.85200       27.63100
H          7.18600       26.76200       28.02400
C          9.21300       26.19400       28.37300
H         10.11200       26.18100       27.76400
C          9.50700       26.94500       29.69300
H          8.62400       26.86600       30.32200
H         10.30800       26.43400       30.22800
C          9.88200       28.43800       29.59700
H          9.11800       28.97900       29.03600
H          9.88200       28.83900       30.61100
C         11.26700       28.72200       28.99300
H         11.52000       29.76900       29.17100
H         12.00600       28.09800       29.50000
N         11.28800       28.46500       27.54500
H         10.39200       28.32600       27.09600
C         12.32600       28.17800       26.79200
N         12.13100       27.72000       25.59300
H         11.17200       27.59800       25.28000
H         12.92100       27.44600       25.03400
N         13.55600       28.29500       27.18800
H         13.75000       28.62700       28.12800
H         14.29300       27.93100       26.60200
C          8.87600       24.72000       28.64100
O          7.75600       24.28600       28.38500
N          9.82900       23.94400       29.16000
H         10.73200       24.36000       29.34900
C          9.51300       22.63200       29.73300
H          8.97800       22.04100       28.98700
C         10.78300       21.86000       30.12400
H         11.49900       22.53900       30.58500
H         10.50000       21.13200       30.88600
S         11.59500       20.92000       28.79800
C          8.58500       22.81200       30.94900
O          8.94800       23.47800       31.91700
N          7.40500       22.19400       30.89100
H          7.19500       21.64200       30.07200
C          6.32600       22.29400       31.87800
H          6.74200       22.55000       32.85200
C          5.34000       23.39400       31.44400
H          5.01100       23.18100       30.42600
H          4.45700       23.33200       32.08100
C          5.81100       24.82000       31.50300
C          6.46900       25.39000       32.53800
H          6.78500       24.86900       33.43300
N          6.64900       26.73700       32.29500
H          7.09300       27.36200       32.95300
C          6.11400       27.10900       31.08200
C          6.04200       28.33700       30.40600
H          6.43700       29.23300       30.86100
C          5.42200       28.38800       29.14600
H          5.32800       29.33200       28.62500
C          4.90300       27.21300       28.57500
H          4.40900       27.25400       27.61300
C          4.99200       25.98400       29.26000
H          4.58700       25.08700       28.81300
C          5.59000       25.89800       30.53700
C          5.60300       20.94500       32.01200
O          5.66700       20.10200       31.12400
N          4.89600       20.71800       33.11100
H          4.41800       19.83500       33.19000
H          4.83300       21.41500       33.83400
H         17.75700       21.82900       27.80100
C         18.31700       22.74300       27.99200
H         19.31600       22.65700       27.56700
H         18.39600       22.90300       29.06700
C         17.60400       23.91600       27.36600
O         17.20100       24.84100       28.06300
N         17.40600       23.87300       26.05000
H         17.72300       23.06000       25.54100
C         16.76800       24.95200       25.26500
H         17.33600       25.87200       25.40600
C         16.77800       24.60800       23.76800
H         16.23800       25.38000       23.21900
C         18.19100       24.50000       23.19500
H         18.13800       24.33400       22.11900
H         18.73200       25.42900       23.37600
H         18.73300       23.67400       23.65700
O         16.14100       23.36700       23.57200
H         16.16400       23.16700       22.63000
C         15.32200       25.24700       25.68500
O         14.86300       26.38500       25.55300
N         14.61200       24.26200       26.24600
H         15.02800       23.34300       26.28000
C         13.28500       24.44200       26.83900
H         12.69400       25.06400       26.16700
C         12.58200       23.08700       26.94300
H         11.52700       23.27300       27.14700
H         12.64100       22.56100       25.98900
S         13.21900       22.01800       28.25500
C         13.30000       25.14400       28.21400
O         12.23400       25.50300       28.70400
N         14.46500       25.35600       28.83600
H         15.31400       25.01400       28.40000
C         14.62200       26.15200       30.06300
H         13.64100       26.40100       30.46600
C         15.37700       25.35400       31.15300
H         16.35300       25.07300       30.75500
C         15.62700       26.21900       32.40200
H         14.69200       26.64600       32.76800
H         16.07300       25.61200       33.19100
H         16.31800       27.03000       32.17400
C         14.65700       24.04000       31.54400
H         14.59400       23.39400       30.66900
H         15.27100       23.51700       32.27800
C         13.24600       24.19700       32.13100
H         13.27000       24.81200       33.03000
H         12.57400       24.64600       31.40000
H         12.86100       23.21300       32.39900
C         15.28700       27.49000       29.72100
O         14.64600       28.53400       29.78500
N         16.51800       27.48200       29.22800
H         17.00300       26.60400       29.09600
H         16.95600       28.36000       29.00200
