103
1 1
H         29.16500      -21.64400       18.41700
C         30.22400      -21.73800       18.65300
H         30.39300      -21.50000       19.70200
H         30.79700      -21.04900       18.03200
C         30.68300      -23.14900       18.37600
O         31.55000      -23.36500       17.53900
N         30.07500      -24.12400       19.05100
H         29.36500      -23.85300       19.71300
C         30.44700      -25.54700       19.01200
H         31.52300      -25.60600       19.18400
C         29.74600      -26.23700       20.19300
H         30.06800      -27.27700       20.26100
H         30.00400      -25.73400       21.12600
H         28.66600      -26.20400       20.05400
C         30.18700      -26.27700       17.66600
O         30.07000      -27.50100       17.63600
N         30.07100      -25.54900       16.55400
H         30.27700      -24.56000       16.62800
C         29.75700      -26.07700       15.22500
H         28.85500      -26.67400       15.31400
C         29.41100      -24.90600       14.29700
H         30.30000      -24.28800       14.16100
H         29.13500      -25.30900       13.32100
S         28.05500      -23.83200       14.86300
C         30.81400      -27.01100       14.58300
O         30.40000      -27.87100       13.80400
N         32.13500      -26.91700       14.86300
C         32.82300      -25.81800       15.53000
H         32.82200      -25.98500       16.60800
H         32.37100      -24.85300       15.29600
C         34.25900      -25.85200       15.01400
H         34.95900      -25.42800       15.73400
H         34.32100      -25.33100       14.05700
C         34.48900      -27.34700       14.80600
H         34.72100      -27.81400       15.76600
H         35.28500      -27.53700       14.08500
C         33.12900      -27.83600       14.29600
H         33.10600      -27.72300       13.21100
C         32.90000      -29.32000       14.63400
O         32.29400      -29.67700       15.64300
N         33.41100      -30.22100       13.80700
H         33.90800      -29.92900       12.98100
H         33.28000      -31.19700       14.01600
H         24.91800      -26.78300       23.75400
C         24.57500      -26.33700       22.82200
H         24.61400      -25.25200       22.90400
H         23.55100      -26.64800       22.61900
C         25.47100      -26.78000       21.69000
O         26.09900      -25.95300       21.03300
N         25.54000      -28.09300       21.44500
H         24.98300      -28.71400       22.01300
C         26.35600      -28.66700       20.36400
H         27.31200      -28.14100       20.37600
C         26.66000      -30.16300       20.63300
H         26.72600      -30.32100       21.71100
H         25.83500      -30.78100       20.27300
C         27.98800      -30.67500       20.02400
H         28.81300      -30.26200       20.60600
H         28.01900      -31.76200       20.11800
C         28.19800      -30.29000       18.55400
H         27.36400      -30.65900       17.95400
H         28.22200      -29.20400       18.51200
C         29.51600      -30.77900       17.94400
H         30.32900      -30.51800       18.62600
H         29.49100      -31.86600       17.82500
N         29.74700      -30.11200       16.64000
H         29.10400      -30.42300       15.91500
H         29.59800      -29.11000       16.74300
H         30.70000      -30.22100       16.30300
C         25.71400      -28.39900       18.98800
O         25.05200      -29.26000       18.41700
N         25.96100      -27.21100       18.43500
H         26.39400      -26.51400       19.02600
C         25.73400      -26.90100       17.01700
H         24.66200      -26.84300       16.82400
C         26.37900      -25.54200       16.72000
H         25.86300      -24.76600       17.28700
H         27.40900      -25.58000       17.07400
S         26.42100      -25.05200       14.97400
C         26.34900      -27.99900       16.12800
O         27.51100      -28.34700       16.32500
N         25.59400      -28.56000       15.17600
H         24.65000      -28.22500       15.06600
C         25.93800      -29.84500       14.53200
H         25.92000      -30.61400       15.30600
C         24.87900      -30.22800       13.47000
H         24.90900      -29.47700       12.67800
C         25.20900      -31.58500       12.82200
H         24.41400      -31.87200       12.13200
H         26.13800      -31.52200       12.25400
H         25.31500      -32.35800       13.58300
C         23.43200      -30.23900       14.02300
H         23.15200      -29.22700       14.31600
H         22.75500      -30.53000       13.21900
C         23.18200      -31.17100       15.21800
H         23.78500      -30.86700       16.07400
H         22.13000      -31.11500       15.50000
H         23.41600      -32.20200       14.95400
C         27.36600      -29.86100       13.95900
O         28.18000      -30.69400       14.35400
N         27.72500      -28.89600       13.12400
H         27.06000      -28.19600       12.84400
H         28.69900      -28.82600       12.86500
