103
1 1
H         26.72500      -18.38700       16.92500
C         26.78600      -18.94000       17.86100
H         26.53000      -19.98400       17.69000
H         26.09900      -18.50400       18.58200
C         28.19600      -18.84800       18.39200
O         28.97200      -19.78200       18.21400
N         28.51100      -17.72100       19.03000
H         27.78000      -17.04000       19.16000
C         29.85100      -17.35900       19.50000
H         30.55200      -17.49700       18.67400
C         29.83000      -15.87000       19.86400
H         29.52300      -15.27700       19.00100
H         29.14100      -15.69300       20.69100
H         30.83100      -15.55400       20.16400
C         30.38300      -18.20400       20.67700
O         31.59500      -18.27500       20.86700
N         29.51900      -18.87400       21.45000
H         28.52900      -18.78500       21.25200
C         29.96200      -19.90700       22.39300
H         30.63700      -19.45900       23.11900
C         28.74600      -20.45500       23.14800
H         28.30300      -19.63600       23.71500
H         28.01500      -20.80500       22.42100
S         29.09800      -21.81700       24.29600
C         30.67200      -21.02700       21.60600
O         30.02000      -21.60500       20.73800
N         31.95800      -21.36200       21.84900
C         32.86500      -20.72900       22.79900
H         32.76900      -21.21400       23.77100
H         32.68600      -19.65800       22.89200
C         34.27100      -20.95000       22.24100
H         35.01900      -20.99200       23.03300
H         34.50900      -20.15800       21.52800
C         34.14100      -22.28200       21.50600
H         34.21900      -23.09800       22.22600
H         34.89500      -22.38700       20.72400
C         32.72600      -22.19800       20.92100
H         32.78900      -21.66100       19.97300
C         32.09400      -23.56900       20.63500
O         31.65900      -23.82900       19.51500
N         31.95300      -24.43200       21.63200
H         31.53700      -25.32800       21.43900
H         32.27400      -24.19100       22.55600
H         25.04300      -30.74400       17.62800
C         24.70800      -29.74700       17.91300
H         23.96800      -29.82700       18.70800
H         24.27400      -29.24900       17.04800
C         25.89600      -28.95500       18.40800
O         27.00900      -29.46400       18.43700
N         25.66400      -27.70100       18.80400
H         24.71400      -27.35700       18.76500
C         26.69700      -26.78800       19.32100
H         27.43500      -27.38400       19.86000
C         27.38400      -26.08000       18.13700
H         27.45500      -26.77200       17.29500
H         26.77900      -25.22700       17.82300
C         28.81000      -25.62100       18.47800
H         28.80700      -25.00100       19.37400
H         29.41100      -26.50800       18.68700
C         29.46300      -24.85700       17.31400
H         30.54300      -24.84500       17.46600
H         29.28200      -25.40000       16.38500
C         28.97200      -23.41000       17.15100
H         29.47500      -22.98200       16.27900
H         27.89600      -23.40500       16.95900
N         29.28100      -22.58300       18.34100
H         28.63200      -22.74000       19.11000
H         30.20400      -22.78400       18.71900
H         29.24000      -21.58200       18.15800
C         26.08300      -25.77300       20.28600
O         24.93300      -25.37800       20.10800
N         26.84400      -25.30800       21.27900
H         27.79000      -25.64000       21.36800
C         26.41900      -24.16300       22.08600
H         25.39100      -24.35200       22.40200
C         27.26300      -24.06200       23.36500
H         26.77200      -23.36200       24.04200
H         27.26200      -25.03300       23.86200
S         28.98400      -23.52500       23.17700
C         26.40800      -22.86600       21.25000
O         27.14600      -22.73700       20.26800
N         25.54600      -21.91900       21.63900
H         24.96000      -22.12200       22.43300
C         25.27600      -20.67700       20.89200
H         25.87000      -20.67400       19.97700
C         23.78400      -20.62600       20.46700
H         23.17300      -20.73300       21.36500
C         23.41200      -19.28300       19.80800
H         22.33400      -19.22800       19.65500
H         23.68600      -18.43900       20.43900
H         23.90400      -19.18800       18.84000
C         23.45700      -21.80200       19.51300
H         24.05600      -21.71000       18.60500
H         23.72500      -22.74300       19.99300
C         21.97900      -21.91300       19.12000
H         21.82400      -22.83900       18.56400
H         21.35500      -21.93000       20.01500
H         21.68600      -21.07800       18.48400
C         25.72500      -19.44800       21.69600
O         26.57200      -18.68400       21.24600
N         25.23700      -19.26800       22.91700
H         24.53500      -19.88700       23.28400
H         25.54100      -18.45900       23.43700
