103
1 1
H         21.87300      -26.41300       22.49200
C         22.72400      -26.63800       21.85000
H         22.37900      -27.21500       20.99200
H         23.46200      -27.21200       22.40700
C         23.34300      -25.35000       21.36500
O         23.49400      -25.15200       20.16500
N         23.72700      -24.48100       22.29700
H         23.57100      -24.72700       23.26100
C         24.22000      -23.12100       22.03000
H         23.52200      -22.64300       21.34100
C         24.17000      -22.34600       23.35400
H         24.87500      -22.77400       24.06800
H         24.43700      -21.30200       23.18000
H         23.16300      -22.37900       23.77200
C         25.61700      -23.02400       21.36300
O         26.15200      -21.92800       21.21900
N         26.22900      -24.14300       20.96000
H         25.72400      -25.01100       21.03000
C         27.54800      -24.14200       20.31900
H         28.21800      -23.61800       20.99500
C         28.04300      -25.59000       20.22000
H         27.85900      -26.09400       21.16900
H         27.46300      -26.10100       19.45400
S         29.80400      -25.78400       19.84800
C         27.50900      -23.41300       18.94400
O         26.52400      -23.59300       18.21700
N         28.51700      -22.59500       18.56500
C         29.68400      -22.22600       19.36300
H         30.48600      -22.94300       19.18700
H         29.46300      -22.16000       20.42700
C         30.10800      -20.84600       18.87200
H         31.17400      -20.67100       19.02500
H         29.51400      -20.07800       19.37000
C         29.74700      -20.90100       17.39200
H         30.53400      -21.42900       16.84900
H         29.59800      -19.90400       16.97600
C         28.45300      -21.72400       17.37900
H         27.61100      -21.04400       17.51500
C         28.28500      -22.43400       16.02500
O         28.61200      -23.60400       15.86000
N         27.81400      -21.71900       15.01200
H         27.57600      -20.74900       15.14000
H         27.77200      -22.13900       14.09100
H         29.40200      -24.43000       10.20600
C         28.50900      -23.80900       10.21400
H         27.79700      -24.17300        9.47600
H         28.78000      -22.78000        9.97800
C         27.87800      -23.84800       11.58600
O         27.75200      -22.81500       12.23800
N         27.48200      -25.04300       12.03500
H         27.61700      -25.84400       11.43500
C         26.81900      -25.24600       13.33200
H         27.05300      -24.39100       13.96300
C         25.29100      -25.27100       13.12100
H         24.99500      -24.38900       12.54900
H         25.02900      -26.15000       12.52900
C         24.47300      -25.30000       14.42500
H         23.42300      -25.43600       14.16500
H         24.78400      -26.15500       15.02300
C         24.60800      -24.01000       15.25200
H         25.64400      -23.86700       15.56000
H         24.31500      -23.16200       14.63100
C         23.72000      -24.02600       16.50300
H         23.73800      -23.02600       16.94700
H         22.69100      -24.25900       16.21800
N         24.21200      -25.00000       17.50000
H         25.20100      -24.83800       17.69200
H         23.72200      -24.94200       18.38700
H         24.14100      -25.96000       17.16900
C         27.34100      -26.48600       14.06200
O         26.90900      -27.60800       13.81000
N         28.22900      -26.26300       15.02500
H         28.51300      -25.30100       15.17700
C         28.50400      -27.20600       16.10400
H         28.86700      -28.14600       15.68700
C         29.59500      -26.59100       16.98700
H         30.53500      -26.57000       16.43300
H         29.31700      -25.55700       17.19200
S         29.88000      -27.38100       18.58700
C         27.20400      -27.46700       16.88600
O         26.49100      -26.52500       17.22800
N         26.87500      -28.73700       17.14700
H         27.52700      -29.45400       16.86700
C         25.54900      -29.17300       17.63000
H         25.53300      -30.26100       17.56600
C         25.30600      -28.81600       19.12500
H         25.15400      -27.73900       19.20800
C         24.02700      -29.52400       19.61600
H         24.15800      -30.60700       19.58300
H         23.79300      -29.23100       20.63800
H         23.17000      -29.25200       18.99900
C         26.50600      -29.19500       20.02700
H         26.66900      -30.27300       19.98400
H         27.40400      -28.70400       19.65700
C         26.35000      -28.77100       21.49400
H         27.29900      -28.91600       22.01200
H         26.07100      -27.71900       21.55100
H         25.59300      -29.37800       21.99000
C         24.44000      -28.66500       16.68300
O         23.71200      -27.71700       16.97200
N         24.34500      -29.23800       15.49100
H         23.65200      -28.89600       14.84600
H         24.98400      -29.96800       15.22300
