103
1 1
H         35.91600      -27.10400       16.87300
C         35.94000      -26.02900       16.70400
H         36.59400      -25.80200       15.86400
H         36.31200      -25.53000       17.59800
C         34.54400      -25.53600       16.40400
O         34.01700      -24.70200       17.13300
N         33.95200      -26.04500       15.32600
H         34.46700      -26.72700       14.79300
C         32.58100      -25.75100       14.89800
H         32.38600      -24.68900       15.05000
C         32.51300      -26.02400       13.38400
H         31.55600      -25.69500       12.98000
H         33.29800      -25.46500       12.87300
H         32.64700      -27.08900       13.18500
C         31.53200      -26.52300       15.74100
O         31.66300      -26.62300       16.96200
N         30.47200      -27.04500       15.11200
H         30.44600      -26.98600       14.10800
C         29.55800      -27.99400       15.75000
H         29.35600      -27.63800       16.75800
C         28.22000      -28.03100       14.99500
H         28.40200      -28.11700       13.92200
H         27.67200      -28.92200       15.30300
S         27.15100      -26.60500       15.32400
C         30.19700      -29.40100       15.83100
O         30.98800      -29.74200       14.95200
N         29.85300      -30.23400       16.83500
C         30.33500      -31.60700       16.92600
H         31.41800      -31.65700       16.80500
H         29.84800      -32.21100       16.15900
C         29.93100      -32.10800       18.31200
H         30.71300      -31.87000       19.03400
H         29.72300      -33.17800       18.31000
C         28.67800      -31.28600       18.61500
H         28.49700      -31.20200       19.68800
H         27.81800      -31.74500       18.12400
C         28.96800      -29.92800       17.96400
H         28.02800      -29.50400       17.61000
C         29.58600      -28.94600       18.97500
O         28.86900      -28.15800       19.57500
N         30.90300      -28.91200       19.13200
H         31.29200      -28.23800       19.77100
H         31.49400      -29.53400       18.60400
H         32.51100      -21.41900        9.67600
C         32.57600      -20.74600       10.53100
H         31.87200      -19.92600       10.39900
H         33.58900      -20.35600       10.60700
C         32.23300      -21.51000       11.78800
O         31.93700      -22.70200       11.73200
N         32.26000      -20.83400       12.94100
H         32.49400      -19.85200       12.91400
C         31.93500      -21.45200       14.23600
H         32.40100      -22.43800       14.23500
C         32.57000      -20.66100       15.40300
H         33.56800      -20.35000       15.08900
H         31.99700      -19.75700       15.62000
C         32.75000      -21.50900       16.68200
H         33.00600      -22.52400       16.38600
H         33.59800      -21.10700       17.23900
C         31.54200      -21.53800       17.63500
H         31.40300      -20.53600       18.04400
H         30.63600      -21.80000       17.09900
C         31.70100      -22.52600       18.80100
H         32.64000      -22.32800       19.32500
H         30.87800      -22.34900       19.50100
N         31.64300      -23.94000       18.35800
H         31.40900      -24.55400       19.12600
H         30.90600      -24.07800       17.67100
H         32.51600      -24.25200       17.93700
C         30.42500      -21.68700       14.37300
O         29.71200      -20.92800       15.02200
N         29.95100      -22.79100       13.80000
H         30.56400      -23.27100       13.15300
C         28.69000      -23.41900       14.19800
H         27.87300      -22.72400       13.99700
C         28.49100      -24.67200       13.33500
H         28.52200      -24.35800       12.29000
H         29.32700      -25.34700       13.49300
S         26.95800      -25.61100       13.55600
C         28.72900      -23.70900       15.71500
O         29.78000      -24.09000       16.23900
N         27.62800      -23.46600       16.43600
H         26.79300      -23.18700       15.94300
C         27.64100      -23.27700       17.90000
H         28.32100      -22.44700       18.08800
C         26.24400      -22.82100       18.39200
H         25.98700      -21.91200       17.84400
C         25.13400      -23.85000       18.10500
H         25.11900      -24.12800       17.05100
H         25.26700      -24.74400       18.71500
H         24.16400      -23.41500       18.35100
C         26.20700      -22.47800       19.89800
H         25.19100      -22.18300       20.16300
H         26.46200      -23.35800       20.49100
C         27.13900      -21.32400       20.29200
H         26.97400      -21.07100       21.34000
H         28.18200      -21.61500       20.16800
H         26.92700      -20.44800       19.67900
C         28.20900      -24.46400       18.70100
O         29.09900      -24.27300       19.52400
N         27.79100      -25.69100       18.43100
H         28.16700      -26.46200       18.97100
H         27.08200      -25.84100       17.73400
