103
1 1
H         34.96800      -41.17500       18.50600
C         34.99500      -40.51600       19.37200
H         35.76500      -40.86100       20.06100
H         34.03200      -40.53000       19.87900
C         35.32400      -39.11000       18.92800
O         35.47600      -38.87100       17.73400
N         35.39900      -38.18300       19.88000
H         35.08800      -38.45800       20.80400
C         35.90300      -36.81300       19.71600
H         35.65500      -36.26700       20.62700
C         37.44100      -36.89100       19.65000
H         37.75400      -37.35200       18.71100
H         37.87700      -35.89500       19.72900
H         37.81800      -37.49100       20.48100
C         35.25200      -36.01600       18.55500
O         34.07600      -36.20600       18.22600
N         35.99000      -35.06800       17.97100
H         36.95100      -34.98300       18.26200
C         35.56300      -34.24200       16.83800
H         34.48800      -34.10000       16.89800
C         36.24500      -32.86900       16.94300
H         37.32300      -33.02600       17.01500
H         36.07800      -32.32700       16.01200
S         35.75100      -31.75100       18.29500
C         35.88200      -34.90900       15.47900
O         36.77500      -35.75300       15.42400
N         35.20800      -34.52500       14.37300
C         35.54500      -35.00900       13.04000
H         35.69000      -36.09000       13.03300
H         36.45400      -34.51100       12.69700
C         34.37400      -34.62600       12.13700
H         33.62400      -35.41900       12.15000
H         34.70000      -34.42000       11.11700
C         33.81900      -33.37700       12.82100
H         32.77600      -33.19900       12.55500
H         34.42900      -32.51300       12.55000
C         34.00300      -33.68800       14.31000
H         34.15000      -32.75200       14.85100
C         32.77400      -34.41000       14.88800
O         32.77700      -35.62600       15.07000
N         31.71800      -33.68100       15.20900
H         30.93100      -34.12700       15.66100
H         31.70800      -32.67800       15.07400
H         32.44400      -39.53200       23.72900
C         31.68100      -38.81700       23.42300
H         31.66600      -37.98100       24.12100
H         30.70800      -39.30600       23.41400
C         32.00200      -38.31000       22.03700
O         33.00300      -38.71200       21.45200
N         31.15900      -37.41600       21.51500
H         30.38800      -37.10600       22.09100
C         31.28700      -36.79900       20.18400
H         32.29400      -36.96800       19.80800
C         30.25600      -37.40800       19.21100
H         29.27600      -37.40400       19.69300
H         30.17000      -36.76600       18.33400
C         30.55900      -38.84400       18.74200
H         30.56500      -39.50700       19.60700
H         29.75100      -39.16600       18.08300
C         31.89100      -39.00600       17.99200
H         32.70000      -38.78600       18.68300
H         31.99100      -40.04400       17.66900
C         31.99500      -38.07900       16.77500
H         31.23000      -38.34700       16.04200
H         31.80000      -37.05400       17.10300
N         33.34000      -38.11000       16.15700
H         33.54900      -38.99100       15.71500
H         33.41100      -37.34600       15.48900
H         34.05800      -37.94600       16.86300
C         31.09500      -35.28500       20.25700
O         30.24400      -34.80500       20.99900
N         31.85100      -34.54500       19.44900
H         32.54900      -35.00900       18.88500
C         31.59000      -33.12300       19.21600
H         31.39800      -32.63800       20.17500
C         32.81800      -32.46300       18.57800
H         32.92500      -32.84200       17.56400
H         32.64100      -31.38900       18.50400
S         34.37800      -32.71200       19.46100
C         30.35800      -32.91800       18.31300
O         29.97100      -33.81400       17.56000
N         29.80300      -31.70300       18.32400
H         30.16700      -31.01800       18.96700
C         28.78500      -31.25300       17.36400
H         27.94900      -31.95300       17.39300
C         28.25500      -29.85000       17.76800
H         29.10800      -29.20600       17.99000
C         27.45600      -29.16700       16.64100
H         26.61100      -29.78800       16.34200
H         27.07800      -28.20200       16.98200
H         28.09500      -28.97200       15.78000
C         27.32900      -29.88700       19.01100
H         26.88100      -28.90000       19.13800
H         26.51700      -30.59500       18.83900
C         28.00700      -30.22700       20.34500
H         28.90100      -29.61700       20.47800
H         27.31400      -30.01900       21.16100
H         28.26700      -31.28400       20.38500
C         29.36800      -31.29200       15.93500
O         30.55100      -31.04000       15.71600
N         28.55800      -31.62400       14.93800
H         27.59100      -31.83700       15.12000
H         28.92900      -31.63700       14.00200
