115
1 1
H         13.81300       47.89000       -6.60600
C         13.26500       47.62700       -7.51000
H         13.95700       47.24200       -8.25700
H         12.76200       48.51300       -7.89600
C         12.23800       46.57000       -7.18000
O         12.15700       46.14100       -6.03200
N         11.47100       46.16100       -8.19500
H         11.62900       46.59300       -9.09100
C         10.42300       45.13200       -8.11200
H          9.84800       45.31300       -7.20200
C          9.45200       45.25200       -9.30800
H         10.01200       45.08800      -10.23100
H          8.70000       44.46500       -9.22400
C          8.72000       46.60500       -9.42500
H          9.45200       47.40600       -9.53000
C          7.83800       46.59700      -10.67300
H          8.44700       46.41900      -11.55900
H          7.07800       45.81900      -10.59400
H          7.34500       47.56400      -10.78100
C          7.83300       46.90000       -8.21400
H          8.44300       47.03000       -7.32100
H          7.27900       47.82400       -8.38100
H          7.12600       46.08500       -8.05700
C         11.02200       43.72400       -7.92600
O         11.52200       43.43000       -6.84900
N         10.99300       42.84200       -8.93000
H         10.55100       43.10300       -9.79600
C         11.60100       41.50700       -8.84800
H         11.39400       41.07300       -7.87700
C         10.93800       40.58800       -9.87400
H         11.12200       40.98300      -10.87400
H         11.39700       39.59900       -9.81600
S          9.14500       40.40200       -9.63700
C         13.13300       41.58200       -8.96600
O         13.69900       41.55600      -10.05700
N         13.80200       41.72700       -7.81700
H         13.24600       41.73500       -6.96500
C         15.25000       41.94800       -7.68400
H         15.57200       42.68200       -8.42400
C         15.52700       42.51500       -6.27800
H         15.04600       41.87600       -5.54000
H         16.60200       42.50400       -6.08700
C         15.02000       43.96000       -6.13300
H         15.69400       44.61600       -6.68600
H         14.03400       44.06200       -6.58000
C         14.95600       44.44100       -4.67300
H         15.93700       44.30200       -4.21400
H         14.74100       45.51100       -4.67600
C         13.90000       43.73700       -3.80300
H         14.13600       42.67100       -3.71700
H         13.94600       44.16700       -2.79900
N         12.53000       43.90100       -4.34000
H         12.34200       43.22100       -5.07800
H         11.82200       43.75200       -3.62600
H         12.37900       44.81400       -4.76100
C         16.03500       40.66000       -7.95100
O         16.23400       39.83900       -7.06400
N         16.47300       40.45700       -9.18200
H         16.98600       39.61400       -9.37600
H         16.21000       41.09700       -9.91500
H         15.03300       37.43000       -8.23000
C         14.06100       37.76700       -8.58800
H         13.60700       36.98400       -9.19300
H         14.17500       38.66900       -9.18300
C         13.15900       38.05700       -7.41400
O         11.96700       37.79700       -7.48100
N         13.71200       38.61000       -6.33900
H         14.70200       38.83600       -6.36700
C         12.95900       38.93400       -5.12300
H         12.38700       38.05600       -4.82100
C         13.93500       39.26200       -3.98100
H         14.52400       38.37200       -3.75600
H         14.62000       40.04600       -4.30000
C         13.22500       39.71700       -2.70100
O         13.90900       40.21300       -1.78200
O         11.99200       39.54500       -2.57200
C         11.96400       40.08400       -5.35900
O         12.33500       41.25800       -5.31100
N         10.69800       39.74700       -5.61300
H         10.51200       38.76500       -5.77400
C          9.60700       40.69300       -5.86500
H          9.97100       41.48300       -6.51300
C          8.48200       39.97000       -6.62100
H          8.02100       39.26100       -5.93200
H          7.71700       40.69900       -6.89300
S          8.93900       39.04500       -8.12100
C          9.06300       41.41700       -4.61500
O          8.11600       42.19200       -4.74400
N          9.60600       41.19400       -3.40500
H         10.41200       40.57300       -3.33000
C          9.10600       41.85000       -2.17800
H          8.03100       41.67800       -2.11200
C          9.78100       41.25700       -0.93100
H         10.86000       41.37500       -1.03600
H          9.46600       41.82400       -0.05300
C          9.42400       39.77500       -0.70000
H          8.35900       39.69800       -0.48100
H          9.62600       39.19200       -1.59900
C         10.21500       39.16800        0.46800
H          9.98800       39.73100        1.37500
H          9.89400       38.13300        0.60200
N         11.66500       39.19800        0.20900
H         11.94800       39.46200       -0.74100
C         12.64600       38.93500        1.04900
N         13.87900       39.12200        0.69300
H         14.03600       39.53600       -0.23500
H         14.65200       38.93600        1.29500
N         12.42400       38.49000        2.25500
H         13.19200       38.29000        2.86500
H         11.47600       38.31900        2.53100
C          9.32400       43.36700       -2.22700
O         10.40600       43.84100       -2.56200
N          8.32500       44.14500       -1.84700
H          8.45900       45.14200       -1.88000
H          7.43700       43.74300       -1.60100
