115
1 1
H         15.62000       35.37000      -11.14300
C         14.56600       35.12700      -11.27100
H         14.30800       34.28300      -10.63200
H         14.37800       34.87200      -12.31300
C         13.72800       36.32000      -10.88400
O         14.26300       37.33000      -10.43500
N         12.40900       36.20500      -11.04300
H         12.05600       35.35100      -11.44500
C         11.44900       37.26200      -10.69600
H         11.74900       38.17500      -11.21400
C         10.06100       36.84600      -11.22500
H         10.11300       36.79600      -12.31400
H          9.83000       35.84500      -10.85700
C          8.89200       37.77000      -10.83300
H          8.75200       37.71600       -9.75700
C          9.11800       39.22800      -11.23800
H          9.96800       39.64800      -10.70200
H          9.29600       39.29600      -12.31200
H          8.23600       39.81900      -10.98800
C          7.60700       37.28100      -11.49800
H          7.40400       36.25100      -11.20400
H          6.76800       37.90200      -11.18000
H          7.69700       37.33500      -12.58300
C         11.47000       37.57700       -9.18800
O         11.70800       38.72000       -8.80100
N         11.31500       36.55800       -8.34000
H         11.15700       35.64100       -8.72800
C         11.67900       36.62100       -6.92400
H         11.73400       37.66000       -6.59800
C         10.62100       35.91400       -6.06800
H         10.60400       34.85800       -6.34300
H         10.93500       35.97200       -5.02500
S          8.92100       36.53800       -6.15900
C         13.05200       35.96300       -6.71300
O         13.28700       34.86400       -7.21300
N         13.95000       36.61100       -5.96200
H         13.72100       37.57000       -5.70700
C         15.31200       36.12100       -5.65700
H         15.45600       35.15300       -6.14300
C         16.33300       37.10400       -6.25800
H         16.06100       38.12000       -5.96800
H         17.33200       36.89300       -5.87100
C         16.36400       36.96200       -7.79000
H         16.90500       36.04800       -8.04000
H         15.35200       36.84600       -8.17100
C         17.02500       38.13800       -8.52300
H         18.05500       38.23900       -8.17700
H         17.05600       37.89800       -9.58800
C         16.31200       39.48900       -8.35400
H         16.42700       39.84300       -7.32600
H         16.80200       40.21400       -9.01100
N         14.87300       39.42900       -8.69700
H         14.68300       38.73600       -9.41700
H         14.30600       39.21600       -7.87500
H         14.57500       40.33400       -9.05600
C         15.54400       35.87100       -4.16100
O         14.85600       36.42500       -3.30600
N         16.52200       35.04800       -3.82100
H         16.68700       34.87500       -2.84300
H         17.07500       34.59700       -4.53100
H         15.21200       44.09100      -10.95800
C         14.33800       44.27000      -10.33300
H         13.49700       44.56400      -10.95900
H         14.55500       45.06100       -9.61700
C         13.98900       43.00500       -9.59100
O         14.66100       41.98800       -9.73600
N         12.93400       43.05300       -8.78500
H         12.40400       43.91200       -8.72400
C         12.42700       41.91300       -8.01600
H         12.56600       41.01200       -8.61000
C         13.22700       41.77400       -6.71000
H         14.29500       41.77900       -6.93400
H         13.01500       42.62800       -6.06400
C         12.89400       40.48100       -5.97000
O         13.55000       39.44600       -6.23200
O         11.97500       40.47700       -5.12300
C         10.92400       42.04600       -7.73300
O         10.39900       43.15400       -7.65700
N         10.24100       40.91700       -7.53400
H         10.73900       40.04000       -7.63000
C          8.81200       40.84800       -7.22200
H          8.26100       41.27600       -8.06000
C          8.44400       39.36500       -7.10700
H          7.35600       39.28000       -7.12000
H          8.82800       38.85300       -7.98400
S          9.05300       38.49900       -5.63200
C          8.38000       41.61600       -5.95500
O          7.19700       41.90800       -5.80400
N          9.31400       41.94500       -5.05000
H         10.26000       41.61500       -5.22400
C          9.07300       42.76300       -3.84200
H          8.00100       42.78300       -3.63500
C          9.77500       42.10500       -2.64200
H         10.83000       41.98200       -2.89100
H          9.71700       42.75800       -1.77000
C          9.12900       40.75400       -2.26700
H          8.32700       40.93600       -1.55000
H          8.68600       40.28000       -3.14200
C         10.13900       39.77600       -1.66000
H         10.61700       40.24300       -0.79600
H          9.60300       38.88300       -1.33300
N         11.15500       39.40500       -2.65900
H         11.17600       39.94100       -3.52700
C         12.10500       38.50400       -2.57200
N         12.27500       37.72200       -1.54600
H         11.65500       37.80500       -0.76300
H         13.03600       37.06500       -1.55800
N         12.93200       38.38100       -3.55600
H         13.71200       37.74300       -3.48600
H         12.83300       39.02900       -4.34300
C          9.46100       44.24200       -4.00700
O          9.47500       44.98700       -3.03800
N          9.80100       44.69600       -5.20300
H         10.03800       45.66800       -5.29200
H          9.79400       44.08000       -6.00500
