115
1 1
H         16.07400       39.19800       -0.01200
C         15.65800       39.83300       -0.79100
H         16.46400       40.26700       -1.38000
H         15.06500       40.62600       -0.34000
C         14.78700       38.99500       -1.69600
O         15.16000       38.71300       -2.82800
N         13.60800       38.60800       -1.21000
H         13.33900       38.96600       -0.30300
C         12.62000       37.82600       -1.96600
H         13.16600       37.10000       -2.57200
C         11.74300       37.04600       -0.96400
H         12.40200       36.45900       -0.32200
H         11.22400       37.76700       -0.33300
C         10.69800       36.09400       -1.58200
H          9.97100       36.65700       -2.16500
C         11.33100       35.03300       -2.48300
H         12.10100       34.48600       -1.93900
H         10.56800       34.33300       -2.82400
H         11.77300       35.50200       -3.36200
C          9.94100       35.37700       -0.46300
H          9.18000       34.72500       -0.89100
H         10.63000       34.77600        0.13100
H          9.45300       36.10800        0.18100
C         11.84300       38.73200       -2.94100
O         10.65200       38.99800       -2.75700
N         12.55300       39.32200       -3.90100
H         13.54400       39.10500       -3.94900
C         12.02900       40.34200       -4.81200
H         11.42700       41.03700       -4.23400
C         13.19500       41.14700       -5.39200
H         13.78100       40.48400       -6.03100
H         12.80100       41.95000       -6.01600
S         14.32600       41.87900       -4.16300
C         11.08900       39.75900       -5.88500
O         11.12700       38.56700       -6.19000
N         10.19200       40.60000       -6.41200
H         10.23100       41.57200       -6.11800
C          8.98900       40.19700       -7.15800
H          9.12800       39.18100       -7.53400
C          7.76400       40.21800       -6.21600
H          7.55400       41.25300       -5.93800
H          6.89900       39.82700       -6.75400
C          7.96500       39.39800       -4.92800
H          8.20700       38.36600       -5.19000
H          8.79500       39.82600       -4.37200
C          6.73200       39.41500       -4.01400
H          6.47500       40.44700       -3.76700
H          5.89000       38.96800       -4.54600
C          6.97400       38.62700       -2.71700
H          6.03900       38.59900       -2.15000
H          7.25200       37.60100       -2.97100
N          8.03200       39.24400       -1.88400
H          7.81600       40.21700       -1.66200
H          8.15900       38.78300       -0.98700
H          8.93500       39.23300       -2.35000
C          8.75900       41.11600       -8.36200
O          9.04000       42.30600       -8.31000
N          8.21200       40.58700       -9.44400
H          8.05800       41.19000      -10.23600
H          7.99000       39.60700       -9.47500
H         11.04100       45.62000       -5.90600
C         10.23200       44.94300       -6.17500
H         10.57800       44.24000       -6.93200
H          9.39100       45.50600       -6.57500
C          9.79000       44.17800       -4.95400
O          9.93800       42.96300       -4.91000
N          9.24400       44.89700       -3.97200
H          9.18000       45.88900       -4.13800
C          8.76500       44.42300       -2.65500
H          8.44000       45.30600       -2.10300
C          7.51000       43.55000       -2.83100
H          6.69700       44.16300       -3.22400
H          7.70900       42.75300       -3.54900
C          7.08200       42.90900       -1.51400
O          6.23500       43.48900       -0.80300
O          7.61900       41.82600       -1.18900
C          9.82700       43.76300       -1.74800
O         10.02200       44.20300       -0.61900
N         10.50300       42.71700       -2.22400
H         10.29900       42.47100       -3.18500
C         11.61800       42.01400       -1.58100
H         11.85400       41.17500       -2.21600
C         12.86500       42.90300       -1.63400
H         12.68000       43.78800       -1.02300
H         13.70800       42.36900       -1.19700
S         13.34100       43.45400       -3.30500
C         11.34900       41.36000       -0.20500
O         12.25900       40.75400        0.36700
N         10.11600       41.40100        0.32100
H          9.39100       41.88100       -0.20900
C          9.75000       40.81600        1.62500
H         10.55900       41.02700        2.32700
C          8.46300       41.47200        2.15700
H          7.67100       41.37300        1.41400
H          8.14800       40.94800        3.06100
C          8.67500       42.95700        2.50500
H          9.44600       43.02800        3.27400
H          9.02000       43.50300        1.62800
C          7.40100       43.62900        3.03100
H          6.98700       43.02600        3.84100
H          7.67500       44.60900        3.42600
N          6.39600       43.80800        1.96800
H          6.64500       43.51900        1.01900
C          5.20900       44.37000        2.06200
N          4.73100       44.82100        3.18900
H          3.82600       45.24900        3.21600
H          5.29800       44.74500        4.01200
N          4.48200       44.48500        0.99500
H          3.58200       44.91500        0.99000
H          4.92000       44.14700        0.12900
C          9.60600       39.29300        1.54700
O          8.93800       38.75800        0.66600
N         10.18800       38.57300        2.49100
H         10.09200       37.57200        2.45900
H         10.74500       39.02300        3.19800
