78
0 1
H        -11.43800      -11.18200      -13.86500
C        -11.55000      -11.54100      -12.84400
H        -10.57800      -11.55200      -12.35200
H        -11.96700      -12.54600      -12.84700
C        -12.47600      -10.62100      -12.08600
O        -12.07900      -10.03500      -11.08400
N        -13.71000      -10.48600      -12.56600
H        -13.97400      -11.03100      -13.36900
C        -14.76100       -9.74200      -11.87300
H        -14.34000       -8.80000      -11.51700
C        -15.88000       -9.41500      -12.87000
H        -16.32700      -10.33800      -13.24400
H        -16.65100       -8.82200      -12.37600
H        -15.47700       -8.84300      -13.70700
C        -15.29500      -10.51800      -10.65300
O        -15.47300      -11.73400      -10.70900
N        -15.57900       -9.80900       -9.56000
H        -15.45600       -8.80700       -9.58400
C        -16.13700      -10.35600       -8.32000
H        -16.92700      -11.06500       -8.57000
C        -15.03000      -11.11500       -7.56500
H        -15.44600      -11.55800       -6.65900
H        -14.71500      -11.94400       -8.20000
S        -13.53100      -10.19600       -7.11000
C        -16.76900       -9.23600       -7.47200
O        -16.73800       -8.06800       -7.86200
N        -17.32800       -9.58500       -6.31200
H        -17.30400      -10.55500       -6.02900
C        -17.84400       -8.64800       -5.31400
H        -17.26700       -7.72300       -5.36100
C        -19.30900       -8.32700       -5.63800
H        -19.38100       -7.89300       -6.63600
H        -19.90800       -9.23800       -5.59800
H        -19.70100       -7.61100       -4.91500
C        -17.68200       -9.23700       -3.90000
O        -17.57300      -10.44800       -3.73300
N        -17.67200       -8.40400       -2.86900
H        -17.76200       -7.41100       -3.01100
H        -17.56000       -8.79400       -1.94700
H        -10.10100      -11.58000       -7.33600
C        -10.24800      -11.04800       -8.27500
H        -11.21800      -11.30800       -8.69600
H         -9.46300      -11.31600       -8.97900
C        -10.18700       -9.56200       -8.01500
O         -9.79200       -9.13700       -6.93600
N        -10.60100       -8.76100       -8.99400
H        -10.97700       -9.19400       -9.83100
C        -10.45600       -7.30100       -8.98500
H         -9.39300       -7.06300       -8.91000
C        -10.97400       -6.77400      -10.33000
H        -12.03500       -7.00300      -10.43800
H        -10.83500       -5.69300      -10.37600
H        -10.42000       -7.23700      -11.14800
C        -11.15700       -6.59300       -7.80600
O        -10.75300       -5.50000       -7.41700
N        -12.17200       -7.21800       -7.20000
H        -12.42200       -8.13800       -7.52700
C        -12.84900       -6.70600       -6.00600
H        -13.12300       -5.66700       -6.19700
C        -14.14400       -7.49600       -5.78700
H        -14.68500       -7.01500       -4.97200
H        -14.75400       -7.41100       -6.68200
S        -13.94700       -9.24900       -5.35200
C        -11.97400       -6.70000       -4.73600
O        -12.35400       -6.06300       -3.75700
N        -10.80800       -7.36000       -4.74200
H        -10.55800       -7.90700       -5.55800
C         -9.80100       -7.24000       -3.68500
H        -10.30700       -7.25300       -2.71800
C         -8.88600       -8.46900       -3.76200
H         -9.48000       -9.38100       -3.69300
H         -8.33600       -8.46700       -4.70400
H         -8.17400       -8.44600       -2.93600
C         -8.98800       -5.92500       -3.75000
O         -8.20400       -5.63500       -2.85300
N         -9.12900       -5.11200       -4.79200
H         -8.59300       -4.26100       -4.80600
H         -9.76600       -5.34200       -5.54200
