78
0 1
H         -9.42500       -4.46300        4.43700
C        -10.27400       -5.02500        4.82200
H        -10.66700       -4.52500        5.70600
H         -9.96000       -6.03600        5.07600
C        -11.35000       -5.08900        3.76600
O        -11.67900       -6.16500        3.27800
N        -11.90200       -3.93500        3.39900
H        -11.59200       -3.09200        3.87300
C        -12.97300       -3.79200        2.41100
H        -13.73400       -4.54500        2.62500
C        -13.61200       -2.40800        2.60500
H        -12.88100       -1.62500        2.39400
H        -14.45900       -2.29400        1.92800
H        -13.96200       -2.30100        3.63200
C        -12.49000       -4.03300        0.96100
O        -12.51500       -3.13200        0.12700
N        -12.00500       -5.23300        0.63700
H        -11.94100       -5.91800        1.38500
C        -11.37000       -5.57100       -0.64900
H        -10.69000       -4.76000       -0.89800
C        -10.50200       -6.82100       -0.46400
H        -11.12800       -7.63900       -0.10400
H        -10.09900       -7.11600       -1.43400
S         -9.09500       -6.62000        0.66300
C        -12.32100       -5.66600       -1.86900
O        -12.09700       -6.46000       -2.78000
N        -13.37700       -4.85000       -1.91500
H        -13.45600       -4.16300       -1.17700
C        -14.17600       -4.63000       -3.11800
H        -14.33500       -5.59000       -3.61300
C        -15.54300       -4.07100       -2.70600
H        -16.03900       -4.76900       -2.03000
H        -15.41900       -3.11000       -2.20500
H        -16.16600       -3.93400       -3.59100
C        -13.44600       -3.69400       -4.10500
O        -12.79400       -2.72800       -3.71100
N        -13.57500       -3.93600       -5.40200
H        -13.10100       -3.32800       -6.04900
H        -14.09800       -4.73500       -5.72000
H        -13.92900       -0.05400       -0.19400
C        -13.47600       -0.37800       -1.12900
H        -13.73100        0.31500       -1.92800
H        -13.82900       -1.37500       -1.38200
C        -11.97500       -0.40800       -0.96300
O        -11.46200        0.05300        0.05100
N        -11.27400       -0.95300       -1.95900
H        -11.79900       -1.38100       -2.71300
C         -9.80800       -0.94300       -2.07000
H         -9.55900       -1.62400       -2.88400
C         -9.35000        0.45700       -2.51100
H         -9.53700        1.17700       -1.71300
H         -8.28100        0.44300       -2.72900
H         -9.88900        0.76200       -3.40800
C         -9.04900       -1.49400       -0.83700
O         -7.94300       -1.05400       -0.53200
N         -9.64400       -2.45700       -0.12400
H        -10.59200       -2.69500       -0.38600
C         -9.12900       -3.03800        1.12600
H         -9.86500       -3.76600        1.45400
C         -7.83600       -3.83800        0.88900
H         -7.06500       -3.15100        0.53900
H         -7.49600       -4.23100        1.84800
S         -7.91500       -5.23700       -0.26600
C         -9.02000       -2.04600        2.30500
O         -8.31400       -2.32300        3.27500
N         -9.73500       -0.91600        2.26900
H        -10.29300       -0.70800        1.44700
C         -9.76500        0.04500        3.37100
H         -8.73900        0.35900        3.56700
C        -10.56300        1.27700        2.92700
H        -10.54600        2.03500        3.71100
H        -10.12300        1.69500        2.02000
H        -11.59700        0.99500        2.72400
C        -10.32900       -0.55900        4.67700
O        -11.17000       -1.45600        4.67300
N         -9.89900       -0.05300        5.82500
H        -10.25900       -0.44200        6.68000
H         -9.20400        0.67500        5.82800
