78
0 1
H        -26.46900        2.62500       -3.54800
C        -26.10700        3.30500       -4.31500
H        -25.38700        3.99700       -3.88100
H        -26.94200        3.86000       -4.74000
C        -25.44100        2.50400       -5.40700
O        -25.98200        2.38600       -6.49700
N        -24.27600        1.93400       -5.11000
H        -23.90800        2.06600       -4.17300
C        -23.49100        1.13000       -6.05800
H        -23.40200        1.68400       -6.99300
C        -22.09000        0.95300       -5.45900
H        -21.45900        0.40500       -6.16000
H        -21.64000        1.92800       -5.26800
H        -22.15100        0.39300       -4.52400
C        -24.12000       -0.24100       -6.40200
O        -23.67500       -0.92300       -7.32200
N        -25.12600       -0.66600       -5.63500
H        -25.46900       -0.02400       -4.93700
C        -25.82700       -1.94600       -5.72700
H        -26.09300       -2.14000       -6.76700
C        -24.85200       -3.04100       -5.25200
H        -24.11800       -3.18200       -6.04700
H        -24.30100       -2.66200       -4.39600
S        -25.48400       -4.68200       -4.80500
C        -27.13400       -1.85600       -4.90800
O        -27.33600       -0.89300       -4.16400
N        -28.03100       -2.83800       -5.04700
H        -27.78400       -3.61200       -5.64300
C        -29.31800       -2.92500       -4.34700
H        -29.82300       -1.96300       -4.44800
C        -30.17400       -3.97800       -5.06700
H        -29.69900       -4.95800       -4.99600
H        -31.15800       -4.02900       -4.60000
H        -30.29500       -3.70800       -6.11600
C        -29.17400       -3.19700       -2.82800
O        -29.53600       -4.25100       -2.31300
N        -28.62100       -2.25100       -2.08600
H        -28.47800       -2.40700       -1.09900
H        -28.26900       -1.41800       -2.53800
H        -29.57400       -4.21200        1.95200
C        -29.12100       -3.97100        0.99200
H        -29.76900       -3.27800        0.45600
H        -29.00400       -4.87700        0.39800
C        -27.77100       -3.33200        1.20600
O        -27.46600       -2.30900        0.60300
N        -26.94300       -3.94500        2.05000
H        -27.26500       -4.78600        2.50100
C        -25.65800       -3.38300        2.48700
H        -25.85200       -2.42200        2.96500
C        -25.06600       -4.32900        3.53900
H        -24.13500       -3.90800        3.92400
H        -25.76300       -4.44900        4.36900
H        -24.85500       -5.30300        3.09500
C        -24.64500       -3.11400        1.35100
O        -23.72600       -2.31700        1.52800
N        -24.81700       -3.72800        0.17500
H        -25.61600       -4.33000        0.06200
C        -23.96600       -3.49000       -0.99500
H        -22.92600       -3.59400       -0.68100
C        -24.25100       -4.57300       -2.04200
H        -23.50300       -4.47200       -2.83000
H        -24.11900       -5.55800       -1.59400
S        -25.89000       -4.49200       -2.81600
C        -24.10300       -2.07500       -1.60000
O        -23.29700       -1.70900       -2.45100
N        -25.08400       -1.26800       -1.17400
H        -25.74300       -1.62300       -0.49300
C        -25.28300        0.10000       -1.66200
H        -25.47100        0.06200       -2.73400
C        -26.52800        0.66700       -0.96800
H        -26.71000        1.68500       -1.31300
H        -27.39800        0.05700       -1.20600
H        -26.38300        0.68000        0.11300
C        -24.07000        1.03400       -1.45100
O        -23.89000        1.98800       -2.20200
N        -23.22200        0.78400       -0.45900
H        -22.42200        1.38400       -0.34900
H        -23.36200       -0.02100        0.13300
