78
0 1
H        -24.11700      -12.20500       -8.43200
C        -23.88400      -11.23500       -8.87000
H        -24.01300      -11.27500       -9.95000
H        -22.85300      -10.97100       -8.63600
C        -24.80600      -10.18900       -8.29200
O        -24.34200       -9.23400       -7.67800
N        -26.11000      -10.37700       -8.47700
H        -26.40000      -11.20000       -8.98000
C        -27.16500       -9.46100       -8.03500
H        -26.71300       -8.50200       -7.78200
C        -28.10800       -9.20700       -9.22100
H        -28.60300      -10.13500       -9.51300
H        -28.86600       -8.47700       -8.93200
H        -27.54500       -8.81300      -10.06700
C        -27.88800       -9.95800       -6.76200
O        -29.09200      -10.21200       -6.78300
N        -27.15700      -10.12100       -5.65300
H        -26.17000       -9.91800       -5.70500
C        -27.67400      -10.67500       -4.38800
H        -28.03800      -11.68600       -4.58000
C        -26.53000      -10.76600       -3.36900
H        -26.04200       -9.79600       -3.28800
H        -26.97500      -10.98300       -2.39600
S        -25.29400      -12.06200       -3.66400
C        -28.85300       -9.90300       -3.75400
O        -29.51500      -10.44200       -2.87100
N        -29.12300       -8.66900       -4.18700
H        -28.51800       -8.27200       -4.89600
C        -30.26800       -7.85800       -3.77000
H        -30.98300       -8.50200       -3.25600
C        -29.78200       -6.80900       -2.75900
H        -30.62900       -6.22200       -2.40100
H        -29.31700       -7.30800       -1.90800
H        -29.05700       -6.14500       -3.22700
C        -31.03200       -7.26400       -4.97700
O        -31.68600       -6.23100       -4.87600
N        -30.94100       -7.87400       -6.15300
H        -31.43700       -7.48200       -6.93500
H        -30.39800       -8.72300       -6.24600
H        -28.15500       -4.26800       -4.69000
C        -28.30200       -4.71500       -5.67200
H        -28.18900       -3.95700       -6.44400
H        -29.30300       -5.13800       -5.73200
C        -27.28000       -5.80800       -5.88100
O        -27.63100       -6.97800       -5.98300
N        -26.01100       -5.41900       -5.96600
H        -25.80400       -4.44400       -5.83500
C        -24.88900       -6.33900       -6.15000
H        -25.16100       -7.04900       -6.92900
C        -23.68100       -5.53500       -6.64500
H        -22.85100       -6.21100       -6.85900
H        -23.94000       -5.00100       -7.56000
H        -23.36900       -4.82000       -5.88200
C        -24.54700       -7.14000       -4.87500
O        -24.85700       -6.72300       -3.75900
N        -23.83900       -8.26200       -5.03400
H        -23.67600       -8.57900       -5.98400
C        -23.24300       -9.05200       -3.94700
H        -23.99100       -9.20000       -3.17000
C        -22.84300      -10.43300       -4.49000
H        -22.06700      -10.29100       -5.24400
H        -22.40200      -11.01300       -3.67700
S        -24.16900      -11.42000       -5.23200
C        -22.04900       -8.33700       -3.27500
O        -20.90900       -8.79300       -3.35300
N        -22.29800       -7.18900       -2.64100
H        -23.25500       -6.85600       -2.62900
C        -21.30600       -6.47000       -1.84600
H        -20.39000       -6.38400       -2.43300
C        -21.83300       -5.05600       -1.56900
H        -22.04000       -4.54600       -2.51100
H        -22.75200       -5.11200       -0.98100
H        -21.08900       -4.48700       -1.01200
C        -20.96600       -7.22100       -0.54100
O        -21.81800       -7.84500        0.08100
N        -19.72400       -7.14000       -0.08200
H        -19.02200       -6.63600       -0.59700
H        -19.50500       -7.63000        0.77000
