99
1 1
H         30.96400       38.80800      -11.84200
C         31.30300       37.86800      -11.40900
H         32.39200       37.84700      -11.39700
H         30.93400       37.03300      -12.00300
C         30.78700       37.74400       -9.99700
O         31.56900       37.56300       -9.06600
N         29.46500       37.82300       -9.83100
H         28.89700       37.98700      -10.64800
C         28.78100       37.71900       -8.52400
H         29.17800       38.50700       -7.88200
C         27.26700       37.98400       -8.70800
H         27.16800       38.92200       -9.26000
C         26.56800       36.88100       -9.52800
H         25.55400       37.19200       -9.77800
H         27.09700       36.69500      -10.46200
H         26.51200       35.95500       -8.95400
C         26.58700       38.18200       -7.33800
H         27.16500       38.91300       -6.77200
H         26.58400       37.24400       -6.78100
C         25.14700       38.70500       -7.42400
H         24.78400       38.91800       -6.41800
H         25.11800       39.62200       -8.01300
H         24.49600       37.95700       -7.87500
C         29.05800       36.38400       -7.80600
O         29.15600       36.35000       -6.58100
N         29.28500       35.32000       -8.57900
H         29.23900       35.45800       -9.57700
C         29.77500       34.01600       -8.14100
H         30.17500       34.10200       -7.13700
C         28.62600       33.00200       -8.12800
H         28.18800       32.97100       -9.12700
H         29.03100       32.01100       -7.91700
S         27.29100       33.31100       -6.94300
C         30.92000       33.54900       -9.05200
O         31.03600       34.00100      -10.19100
N         31.77700       32.65900       -8.55000
H         31.64700       32.37100       -7.58300
C         32.98800       32.19500       -9.24000
H         32.77100       32.05500      -10.29900
C         34.08600       33.26100       -9.10600
H         35.00800       32.89400       -9.56000
H         33.77900       34.17000       -9.62600
O         34.31400       33.55800       -7.73900
H         34.44800       32.70300       -7.29700
C         33.48500       30.86700       -8.65300
O         33.91600       30.81000       -7.50400
N         33.47900       29.79600       -9.43300
H         33.12600       29.84900      -10.37500
H         33.81500       28.92500       -9.05200
H         35.91600       31.63300       -5.95100
C         35.91500       32.35600       -5.13800
H         36.32200       33.30300       -5.48800
H         36.52800       31.97800       -4.32100
C         34.50700       32.57200       -4.63300
O         34.10300       33.71200       -4.41800
N         33.76100       31.48300       -4.45600
H         34.14300       30.60000       -4.75900
C         32.42500       31.48200       -3.84900
H         32.01400       30.47300       -3.88400
H         32.52100       31.77000       -2.80100
C         31.42900       32.42300       -4.53600
O         31.33400       32.45300       -5.76200
N         30.70700       33.20500       -3.73300
H         30.89600       33.16600       -2.74200
C         29.77900       34.25600       -4.15900
H         30.00600       34.54700       -5.17800
C         28.33500       33.73700       -4.09700
H         28.14200       33.39500       -3.08000
H         27.65100       34.56300       -4.29700
S         27.89500       32.38800       -5.22600
C         29.94600       35.50500       -3.27900
O         30.58600       35.44200       -2.22800
N         29.37700       36.64500       -3.69000
H         28.90300       36.64500       -4.59200
C         29.43600       37.91600       -2.94500
H         29.47500       37.68200       -1.87900
C         30.73800       38.64900       -3.31500
H         30.88700       39.48500       -2.63000
H         31.56800       37.95900       -3.16300
C         30.75800       39.18800       -4.75900
H         30.02300       38.67300       -5.37900
H         30.47500       40.24100       -4.73100
C         32.13900       39.06400       -5.41900
H         32.30400       39.95900       -6.02100
H         32.92700       39.03200       -4.66300
N         32.21700       37.89900       -6.32100
H         31.92900       38.05100       -7.28100
C         32.67000       36.68100       -6.09100
N         33.05600       36.26600       -4.91900
H         33.41500       35.32000       -4.80500
H         32.97400       36.86600       -4.12400
N         32.74800       35.86200       -7.09500
H         32.45900       36.20200       -8.00400
H         33.23400       34.97500       -7.01200
C         28.19200       38.78100       -3.16300
O         27.53400       38.68500       -4.18900
N         27.87300       39.65300       -2.22100
H         28.42300       39.72200       -1.38300
H         27.05400       40.22100       -2.36300
