99
1 1
H         34.07300       28.22500       -8.70000
C         33.60600       28.90300       -7.98600
H         34.18200       29.82600       -7.93600
H         33.57600       28.43800       -7.00200
C         32.20100       29.21700       -8.43800
O         31.86500       30.38100       -8.63700
N         31.37400       28.18000       -8.57600
H         31.74100       27.25800       -8.39800
C         29.98800       28.28000       -9.07400
H         30.03200       28.72100      -10.07200
C         29.37700       26.86500       -9.22000
H         30.06000       26.28400       -9.84400
C         29.24000       26.13900       -7.86600
H         28.47100       26.61200       -7.25400
H         28.95800       25.09900       -8.02900
H         30.18500       26.14300       -7.32400
C         28.01600       26.92600       -9.95000
H         28.12100       27.56000      -10.83100
H         27.26300       27.37200       -9.30000
C         27.50600       25.56000      -10.42700
H         26.59800       25.70100      -11.01400
H         28.25900       25.07800      -11.05100
H         27.27300       24.92100       -9.57600
C         29.09700       29.20900       -8.23100
O         28.22500       29.87500       -8.78200
N         29.35300       29.31700       -6.92400
H         30.10300       28.76400       -6.54100
C         28.67700       30.23500       -6.00600
H         28.26100       31.06300       -6.57000
C         27.53600       29.51300       -5.27900
H         27.96200       28.66100       -4.74800
H         27.11800       30.18700       -4.52900
S         26.16100       28.90100       -6.29100
C         29.67200       30.80900       -4.99000
O         30.49100       30.07300       -4.44300
N         29.59900       32.11700       -4.73400
H         28.87000       32.64300       -5.21200
C         30.33900       32.82800       -3.67800
H         30.14600       32.33000       -2.72700
C         31.85900       32.81600       -3.92400
H         32.35000       33.33800       -3.10200
H         32.22600       31.78900       -3.93300
O         32.21000       33.44800       -5.14300
H         33.16500       33.59700       -5.13500
C         29.85800       34.28100       -3.57200
O         29.49200       34.90200       -4.56800
N         29.87400       34.86200       -2.38000
H         30.17100       34.35300       -1.56300
H         29.56700       35.81900       -2.31200
H         25.63100       38.14800       -9.27900
C         25.85500       37.15800       -9.67300
H         26.55400       37.24800      -10.50300
H         24.94000       36.68300      -10.02500
C         26.47400       36.30700       -8.59200
O         27.56700       35.77700       -8.77600
N         25.77300       36.16200       -7.46400
H         24.89300       36.65100       -7.39400
C         26.21100       35.35500       -6.30900
H         27.15600       35.74700       -5.93200
H         25.46600       35.44000       -5.51800
C         26.39800       33.86100       -6.61700
O         27.20900       33.19800       -5.97400
N         25.73400       33.37200       -7.66500
H         25.11300       33.99900       -8.15400
C         26.07600       32.15000       -8.38700
H         27.03800       31.79300       -8.03600
C         25.02500       31.06300       -8.13800
H         24.05500       31.45200       -8.45200
H         25.25400       30.20200       -8.76800
S         24.86300       30.47000       -6.43300
C         26.21600       32.46700       -9.88300
O         25.56200       33.38600      -10.38100
N         27.07800       31.73400      -10.59600
H         27.55500       30.97200      -10.11500
C         27.39700       31.94600      -12.01800
H         26.46400       32.18700      -12.53000
C         28.34700       33.15400      -12.18600
H         28.33100       33.44200      -13.23800
H         27.94900       34.00200      -11.62700
C         29.82700       32.95200      -11.79400
H         30.26400       32.20200      -12.45400
H         30.35600       33.88700      -11.98000
C         30.10500       32.52800      -10.34400
H         29.64400       31.56000      -10.14800
H         31.18500       32.39900      -10.24300
N         29.64100       33.52400       -9.35700
H         28.96700       34.21600       -9.65500
C         30.05700       33.62700       -8.10800
N         29.64300       34.61300       -7.37600
H         29.85500       34.66100       -6.38400
H         28.96500       35.25100       -7.77200
N         30.87600       32.77900       -7.56600
H         31.20500       31.97800       -8.09800
H         31.23400       32.95700       -6.63600
C         27.96100       30.68100      -12.67300
O         28.66500       29.90700      -12.03900
N         27.69900       30.48100      -13.95400
H         27.12800       31.13300      -14.46400
H         28.07400       29.65500      -14.39000
