96
0 1
H          4.23300       96.05000       83.51000
C          5.06200       95.66800       82.91800
H          5.96100       95.63100       83.53200
H          5.23200       96.31300       82.05800
C          4.73300       94.27400       82.44100
O          5.45700       93.33400       82.75000
N          3.66200       94.15200       81.66100
H          3.17500       94.99400       81.39200
C          3.15300       92.89600       81.09800
H          3.84000       92.08800       81.35400
C          1.78700       92.59800       81.75100
H          1.92000       92.56500       82.83400
H          1.12100       93.43200       81.52400
C          1.09000       91.29700       81.30600
H          0.96900       91.29300       80.22300
C          1.86500       90.04900       81.73000
H          1.99300       90.03300       82.81300
H          1.32400       89.15700       81.41700
H          2.84200       90.03200       81.25500
C         -0.30200       91.22000       81.93500
H         -0.80500       90.31200       81.60200
H         -0.22400       91.21100       83.02200
H         -0.89400       92.08000       81.62200
C          3.08200       92.97400       79.56200
O          2.84400       94.03900       78.99800
N          3.27900       91.83900       78.89700
H          3.49100       91.00200       79.43300
C          3.27600       91.66500       77.44500
H          2.65100       92.42900       76.97900
C          4.73200       91.86100       76.97200
H          4.97400       92.92300       77.03300
H          5.38700       91.36400       77.68400
S          5.20200       91.26800       75.32100
C          2.67600       90.28400       77.09600
O          2.51800       89.43000       77.97100
N          2.36400       90.02800       75.82400
H          2.54200       90.73500       75.12400
C          1.95500       88.71200       75.33100
H          2.40300       87.94300       75.96000
C          0.43000       88.58100       75.43700
H          0.12300       87.59000       75.10300
H          0.11800       88.71600       76.47300
H         -0.05200       89.33500       74.81200
C          2.45400       88.48100       73.89500
O          2.55300       89.41300       73.10400
N          2.76800       87.24400       73.53600
H          2.72200       86.49600       74.21700
H          3.09300       87.08500       72.59800
H          7.50500       94.58600       79.14000
C          6.96800       94.03200       79.90900
H          5.89900       94.20000       79.79600
H          7.30100       94.35600       80.89300
C          7.25400       92.56000       79.73800
O          7.73900       92.15700       78.68800
N          6.96000       91.74500       80.75200
H          6.53000       92.13700       81.58400
C          7.16900       90.29000       80.66900
H          8.17000       90.14200       80.26000
C          7.16400       89.62800       82.06800
H          7.92500       90.13900       82.66200
C          5.82700       89.75000       82.82500
H          5.07000       89.10900       82.37300
H          5.95900       89.45900       83.86600
H          5.47200       90.77800       82.80900
C          7.58400       88.14700       81.93500
H          8.48200       88.09000       81.31800
H          6.79600       87.58100       81.43500
C          7.90300       87.46900       83.27400
H          8.66000       88.04100       83.81000
H          7.00400       87.38900       83.88400
H          8.28400       86.46500       83.08600
C          6.18000       89.65900       79.67700
O          4.96800       89.70600       79.88100
N          6.68300       89.10000       78.57400
H          7.67500       89.16300       78.40900
C          5.84000       88.55200       77.51000
H          4.95800       89.17500       77.42500
C          6.56100       88.64100       76.16000
H          7.47500       88.04900       76.21300
H          5.92300       88.19900       75.39400
S          6.99100       90.32700       75.63400
C          5.34900       87.13200       77.82300
O          6.11500       86.17100       77.76400
N          4.05600       86.99500       78.12000
H          3.48900       87.83400       78.19800
C          3.38800       85.70900       78.28100
H          3.97200       85.10600       78.97800
C          2.00600       85.95700       78.89900
H          1.50000       85.00600       79.07000
H          2.11600       86.47800       79.85100
H          1.40300       86.56800       78.22600
C          3.28600       84.93900       76.94700
O          3.00700       85.50600       75.89200
N          3.46400       83.62500       76.97500
H          3.70500       83.16500       77.83600
H          3.40000       83.11800       76.10800
