94
-2 1
H        -38.09900       41.11600      -41.10500
C        -38.75000       40.41200      -40.59000
H        -38.26400       40.09000      -39.67100
H        -38.96300       39.55700      -41.22600
C        -40.04100       41.11500      -40.24500
O        -41.06600       40.83800      -40.86200
N        -39.99300       42.00200      -39.25200
H        -39.08000       42.15100      -38.82200
C        -41.16100       42.74600      -38.73700
H        -41.81600       42.95900      -39.58200
C        -41.95800       41.85300      -37.75600
H        -42.21000       40.92800      -38.27600
C        -41.17800       41.46600      -36.49000
H        -40.94900       42.34700      -35.89600
H        -41.77600       40.78100      -35.88800
H        -40.24700       40.96800      -36.76300
C        -43.28300       42.49500      -37.32700
H        -43.85300       41.78500      -36.72700
H        -43.10400       43.39100      -36.73500
H        -43.86400       42.75900      -38.21000
C        -40.80900       44.10700      -38.11600
O        -41.55100       45.06700      -38.31400
N        -39.68300       44.22200      -37.40300
H        -39.08700       43.39900      -37.33100
C        -39.30900       45.40200      -36.60100
H        -39.81000       46.28000      -37.01000
C        -39.79900       45.20900      -35.15400
H        -39.40300       44.26600      -34.77600
H        -39.39200       46.01000      -34.53600
S        -41.59900       45.22300      -34.93700
C        -37.79400       45.70000      -36.67000
O        -37.18100       46.12000      -35.69000
N        -37.17600       45.41400      -37.81700
H        -37.76000       45.07400      -38.57000
C        -35.75800       45.03200      -37.89800
H        -35.19700       45.50800      -37.09200
C        -35.67500       43.49900      -37.70900
H        -34.74800       43.11900      -38.14200
H        -35.65100       43.29000      -36.63800
C        -36.87900       42.77000      -38.32500
O        -37.65100       42.13700      -37.57300
O        -37.15200       42.97800      -39.52600
C        -35.09000       45.46700      -39.21900
O        -34.01200       46.05300      -39.21900
N        -35.72000       45.23400      -40.36200
H        -35.28500       45.51900      -41.22100
H        -36.53000       44.62200      -40.35000
H        -48.05600       43.15900      -29.83900
C        -48.67300       43.38900      -30.70600
H        -48.57600       44.45300      -30.91800
H        -49.71200       43.13800      -30.50800
C        -48.17600       42.59600      -31.89200
O        -48.89100       41.73600      -32.39700
N        -46.95200       42.88900      -32.32600
H        -46.46900       43.63000      -31.81800
C        -46.27600       42.25800      -33.48200
H        -46.77600       41.31300      -33.69600
C        -46.38800       43.13000      -34.75200
H        -45.91200       42.58900      -35.57000
C        -47.84600       43.36700      -35.16700
H        -48.35200       43.99500      -34.43300
H        -47.87600       43.85900      -36.13800
H        -48.36500       42.41100      -35.23600
C        -45.68700       44.49000      -34.62300
H        -46.11300       45.06300      -33.79900
H        -44.62100       44.34800      -34.44800
H        -45.80300       45.05400      -35.54800
C        -44.80300       41.90300      -33.23100
O        -44.27300       41.02600      -33.90900
N        -44.14000       42.54600      -32.26500
H        -44.64900       43.25300      -31.74200
C        -42.73500       42.28200      -31.89800
H        -42.55600       41.20600      -31.94700
C        -41.82100       42.96700      -32.92500
H        -40.79100       42.66500      -32.73600
H        -42.09600       42.59400      -33.91200
S        -41.88600       44.78000      -32.97000
C        -42.40600       42.73400      -30.46100
O        -41.61200       42.10700      -29.76600
N        -43.10500       43.76900      -30.00300
H        -43.71200       44.22900      -30.67200
C        -43.43000       44.09000      -28.61200
H        -42.51700       44.31600      -28.06100
C        -44.35000       45.33500      -28.62400
H        -44.64800       45.55600      -27.59700
H        -43.76500       46.18500      -28.98100
C        -45.61400       45.22300      -29.51000
O        -46.63000       45.84800      -29.14600
O        -45.58000       44.52000      -30.55400
C        -44.16400       42.94600      -27.88100
O        -43.98100       42.73900      -26.68500
N        -44.99900       42.18000      -28.57400
H        -45.47600       41.43500      -28.09800
H        -45.19100       42.41500      -29.53600
