94
-2 1
H        -44.14900       46.83900      -39.37600
C        -43.77600       46.08100      -38.69200
H        -42.68700       46.09500      -38.68300
H        -44.11400       45.09400      -39.00100
C        -44.28100       46.36700      -37.29800
O        -45.00900       47.33100      -37.08400
N        -43.91900       45.51000      -36.34800
H        -43.31500       44.74200      -36.63100
C        -44.42500       45.52300      -34.96100
H        -45.51200       45.59600      -35.00100
C        -44.07000       44.18100      -34.27700
H        -43.00000       44.00400      -34.38100
C        -44.41200       44.11500      -32.78200
H        -43.79400       44.82000      -32.22600
H        -45.46400       44.35400      -32.62800
H        -44.20200       43.11600      -32.40000
C        -44.82700       43.03000      -34.95700
H        -44.52000       42.94000      -35.99900
H        -44.59100       42.09000      -34.45900
H        -45.90100       43.20400      -34.90900
C        -43.95700       46.73600      -34.13900
O        -44.63400       47.11600      -33.18400
N        -42.83900       47.37400      -34.49900
H        -42.37700       47.09500      -35.35800
C        -42.31400       48.56100      -33.80900
H        -42.72400       48.61700      -32.80000
C        -40.78500       48.44900      -33.71100
H        -40.36600       48.59200      -34.70700
H        -40.42700       49.27300      -33.09400
S        -40.09100       46.91000      -33.04900
C        -42.64900       49.87700      -34.53600
O        -42.45500       50.96000      -33.98400
N        -43.01700       49.78000      -35.81300
H        -43.14900       48.83200      -36.15200
C        -42.50900       50.69800      -36.83600
H        -42.49800       51.71100      -36.43400
C        -41.05200       50.29900      -37.17900
H        -40.73000       50.86000      -38.05800
H        -40.42200       50.62900      -36.35100
C        -40.75100       48.80200      -37.40600
O        -41.60700       47.91500      -37.18000
O        -39.61400       48.50900      -37.82600
C        -43.36400       50.74900      -38.12000
O        -43.18200       51.62900      -38.95600
N        -44.32400       49.85500      -38.31100
H        -44.86700       49.90700      -39.15400
H        -44.47500       49.11200      -37.63900
H        -42.23800       49.02100      -41.55200
C        -41.65100       48.70400      -40.69300
H        -42.30600       48.51300      -39.84700
H        -40.93300       49.47700      -40.42500
C        -40.91200       47.43200      -41.03000
O        -41.09500       46.89100      -42.11600
N        -40.07500       46.96700      -40.10300
H        -39.96500       47.52200      -39.25500
C        -39.22100       45.77400      -40.24200
H        -39.63000       45.15800      -41.04300
C        -37.77800       46.14900      -40.64700
H        -37.21300       45.22400      -40.77400
C        -37.72200       46.88500      -41.99200
H        -38.18400       47.86800      -41.90400
H        -36.68500       47.00400      -42.30400
H        -38.25800       46.30800      -42.74600
C        -37.04800       46.99500      -39.59500
H        -37.56000       47.94800      -39.45700
H        -37.02700       46.47000      -38.64000
H        -36.02400       47.18100      -39.91400
C        -39.20300       44.86700      -39.00300
O        -38.65000       43.77000      -39.08400
N        -39.79600       45.26200      -37.86900
H        -40.19000       46.19700      -37.80700
C        -39.94300       44.35700      -36.72300
H        -38.97300       43.91000      -36.50200
C        -40.39200       45.13400      -35.48300
H        -41.21000       45.78700      -35.77200
H        -40.77000       44.41800      -34.75300
S        -39.11600       46.11400      -34.65700
C        -40.93900       43.21700      -37.00700
O        -42.11700       43.46400      -37.26800
N        -40.47800       41.97100      -36.87600
H        -39.49600       41.84700      -36.69900
C        -41.32500       40.77200      -36.81200
H        -42.06000       40.82300      -37.61700
C        -40.44000       39.53100      -37.05000
H        -39.81500       39.71300      -37.92600
H        -39.77800       39.40100      -36.19100
C        -41.21400       38.22500      -37.29500
O        -40.57700       37.15700      -37.17400
O        -42.42900       38.29500      -37.59400
C        -42.09600       40.68500      -35.47200
O        -41.78100       41.35800      -34.49100
N        -43.11900       39.84800      -35.39300
H        -43.61400       39.76200      -34.52500
H        -43.29800       39.23300      -36.18400
