94
-2 1
H        -40.77400       47.88700      -36.40000
C        -41.48800       47.77000      -35.58800
H        -42.24100       48.55400      -35.63300
H        -40.97300       47.83500      -34.63000
C        -42.15700       46.42200      -35.69700
O        -41.76200       45.61100      -36.52700
N        -43.15900       46.18300      -34.85200
H        -43.25500       46.86400      -34.09900
C        -43.86100       44.90100      -34.61100
H        -44.63300       45.12100      -33.87400
C        -44.59400       44.37000      -35.86500
H        -43.86700       44.11600      -36.63500
C        -45.40900       43.10500      -35.56000
H        -46.12100       43.30300      -34.75900
H        -45.94500       42.78300      -36.45200
H        -44.74500       42.29600      -35.25500
C        -45.56500       45.41400      -36.43700
H        -45.01200       46.29400      -36.76300
H        -46.08700       45.00100      -37.30000
H        -46.29000       45.70500      -35.67700
C        -42.97500       43.84300      -33.94400
O        -43.40700       43.20500      -32.98600
N        -41.71500       43.71000      -34.36600
H        -41.44200       44.23000      -35.19200
C        -40.68100       42.95700      -33.64600
H        -41.07700       41.97000      -33.40100
C        -39.47200       42.77200      -34.57300
H        -39.05100       43.75300      -34.79800
H        -38.71500       42.19800      -34.03600
S        -39.81700       41.92400      -36.13900
C        -40.25200       43.62000      -32.31500
O        -39.47400       43.03800      -31.56300
N        -40.73700       44.83200      -32.02400
H        -41.40400       45.24900      -32.66300
C        -40.61400       45.52900      -30.73600
H        -39.66900       45.25000      -30.27000
C        -40.59000       47.05500      -30.98000
H        -40.59300       47.56800      -30.01700
H        -39.64400       47.29500      -31.46900
C        -41.72600       47.62300      -31.85000
O        -42.64800       46.86700      -32.23500
O        -41.63800       48.81900      -32.19900
C        -41.72700       45.14900      -29.73400
O        -41.62800       45.44000      -28.54400
N        -42.78600       44.46900      -30.16100
H        -43.50500       44.23300      -29.50200
H        -42.87800       44.25100      -31.14400
H        -34.87600       32.45400      -35.34100
C        -35.19200       33.36900      -35.83600
H        -35.79700       33.13900      -36.71000
H        -34.32600       33.95000      -36.15000
C        -36.02000       34.19700      -34.88200
O        -36.40200       33.70300      -33.82500
N        -36.27600       35.45200      -35.24600
H        -35.90100       35.74500      -36.14900
C        -37.03900       36.42100      -34.43500
H        -37.83600       35.87400      -33.93100
C        -36.12600       37.02000      -33.34000
H        -35.66700       36.19400      -32.79500
C        -34.99000       37.89800      -33.88700
H        -35.38900       38.80300      -34.34400
H        -34.32300       38.18000      -33.07300
H        -34.41700       37.34400      -34.63200
C        -36.91400       37.84500      -32.31400
H        -37.72600       37.24200      -31.90800
H        -36.25600       38.14300      -31.49800
H        -37.33200       38.73900      -32.77700
C        -37.72800       37.52400      -35.25500
O        -38.81600       37.95500      -34.88400
N        -37.13400       37.98500      -36.36100
H        -36.24300       37.57100      -36.63300
C        -37.63800       39.11800      -37.15700
H        -38.72900       39.09000      -37.13900
C        -37.19100       40.43000      -36.48900
H        -37.37000       40.36000      -35.41600
H        -36.11800       40.54100      -36.64700
S        -38.01400       41.93200      -37.08900
C        -37.21500       39.00200      -38.63900
O        -36.68800       39.93500      -39.24300
N        -37.34900       37.79600      -39.19500
H        -37.75300       37.07300      -38.61600
C        -36.52800       37.32700      -40.32300
H        -36.30600       38.16000      -40.99200
C        -35.19400       36.79200      -39.75100
H        -34.74200       36.09100      -40.45400
H        -34.51100       37.63600      -39.63900
C        -35.36800       36.11900      -38.38100
O        -34.76400       36.59300      -37.39400
O        -36.23000       35.22200      -38.25600
C        -37.23200       36.25000      -41.17200
O        -37.27000       36.33300      -42.39600
N        -37.83500       35.24300      -40.55600
H        -38.29700       34.54400      -41.10900
H        -37.66400       35.11300      -39.56400
