68
0 1
H         76.22100     -115.52900       56.61700
C         75.40500     -115.64100       55.90300
H         75.08300     -114.65900       55.56400
H         74.57200     -116.15500       56.37700
C         75.88700     -116.45800       54.72800
O         76.93800     -117.08200       54.79700
N         75.13000     -116.45400       53.63300
H         74.31200     -115.86300       53.62000
C         75.38900     -117.25300       52.42200
H         75.69900     -118.24900       52.74200
C         74.08100     -117.41100       51.63700
H         74.23200     -118.09200       50.79900
H         73.31500     -117.83000       52.29200
O         73.64600     -116.15500       51.15400
H         74.25000     -115.90500       50.44300
C         76.52700     -116.70500       51.53600
O         76.41800     -116.70100       50.31000
N         77.60300     -116.19200       52.13600
H         77.64300     -116.25200       53.15000
C         78.75700     -115.60800       51.45100
H         79.02900     -116.23100       50.59800
C         78.37400     -114.20400       50.95900
H         77.47300     -114.27500       50.34800
H         78.12300     -113.60700       51.83400
S         79.62100     -113.29600       50.00100
C         79.95000     -115.50200       52.41000
O         79.77000     -115.15100       53.57400
N         81.18500     -115.66600       51.92500
H         81.31600     -116.01800       50.98700
C         82.39100     -115.33500       52.71200
H         82.41000     -115.95300       53.61000
C         83.65000     -115.62200       51.88900
H         83.72200     -114.89800       51.07600
H         84.53400     -115.52800       52.52200
O         83.58900     -116.92200       51.33400
H         83.80000     -117.56700       52.01700
C         82.40600     -113.86300       53.15700
O         82.92800     -113.53600       54.21700
N         81.76200     -112.98700       52.38000
H         81.34700     -113.34300       51.53300
C         81.50000     -111.58100       52.68800
H         82.43700     -111.12600       53.01000
C         81.06000     -110.89900       51.38300
H         81.01700     -109.82600       51.58200
H         81.83000     -111.05200       50.62700
S         79.44900     -111.37000       50.66800
C         80.47800     -111.33700       53.82100
O         80.22000     -110.18600       54.16000
N         79.89300     -112.39100       54.40000
H         80.12400     -113.31500       54.05600
C         78.93500     -112.34000       55.51500
H         78.78500     -111.30200       55.81500
C         77.57700     -112.89900       55.05500
H         77.71400     -113.93100       54.72900
H         76.88000     -112.89700       55.89400
C         76.94400     -112.09600       53.91200
H         76.60000     -111.13800       54.30300
H         77.69500     -111.89500       53.15000
S         75.55700     -112.94700       53.11300
C         75.23400     -111.78800       51.75800
H         74.97900     -110.81000       52.16700
H         76.12100     -111.70000       51.13000
H         74.40100     -112.15500       51.15800
C         79.44400     -113.08000       56.76900
O         78.72100     -113.21900       57.74800
N         80.67800     -113.57200       56.77800
H         81.28200     -113.45100       55.98000
H         80.98900     -114.05800       57.60300
