112
-1 1
H          2.65700       55.71300      137.73200
C          3.47900       55.01200      137.86500
H          3.62300       54.43600      136.95300
H          3.25600       54.33400      138.68700
C          4.74300       55.78200      138.16400
O          4.73700       57.00500      138.12800
N          5.81800       55.05800      138.47400
H          5.68500       54.05200      138.53100
C          7.19200       55.54700      138.69300
H          7.75900       54.68000      139.02900
C          7.82000       55.99000      137.35200
H          7.38800       56.95300      137.07800
H          8.88800       56.14400      137.51200
C          7.64100       55.02700      136.16100
H          6.58200       54.94100      135.91600
C          8.36300       55.58900      134.93600
H          9.43200       55.66600      135.13800
H          8.20300       54.93300      134.08100
H          7.96800       56.57700      134.70100
C          8.19500       53.62900      136.43400
H          9.25400       53.69700      136.67500
H          7.66800       53.16600      137.26700
H          8.06700       53.00000      135.55400
C          7.39400       56.60500      139.80800
O          8.49900       57.12700      139.95800
N          6.36400       56.90800      140.60700
H          5.48500       56.46900      140.39200
C          6.32800       58.02600      141.56000
H          6.39100       58.94500      140.97700
C          4.97300       58.03000      142.28700
H          4.89500       58.98700      142.80500
H          4.16600       57.99000      141.55500
S          4.70900       56.73400      143.53900
C          7.48100       58.08100      142.58300
O          7.86500       59.17600      142.98600
N          8.05700       56.94300      142.98400
H          7.61500       56.06300      142.73700
C          9.19100       56.86700      143.91900
H          8.94500       57.48200      144.78500
C          9.39500       55.42100      144.41700
H          9.98100       54.88100      143.67100
H          9.98700       55.44800      145.33400
C          8.11500       54.61400      144.65900
O          7.89700       54.16500      145.80400
O          7.39600       54.33400      143.67000
C         10.52000       57.40900      143.34300
O         11.52000       57.50400      144.04700
N         10.58700       57.75400      142.06200
H          9.75500       57.71800      141.48700
H         11.45400       58.12100      141.71200
H          9.46900       52.23000      143.85300
C          9.32500       51.35700      144.48400
H          9.57900       51.61500      145.51100
H          9.95600       50.54100      144.13900
C          7.87700       50.93300      144.41500
O          7.54100       50.02700      143.65900
N          7.01500       51.59300      145.18200
H          7.35700       52.43600      145.64700
C          5.57700       51.31100      145.26400
H          5.43300       50.26600      145.53400
C          4.95200       52.21400      146.34600
H          5.08000       53.25300      146.03800
H          3.88100       52.01000      146.38900
C          5.54400       52.05800      147.76100
H          6.61200       52.26900      147.74400
C          4.87500       53.05500      148.70800
H          3.80300       52.86800      148.75900
H          5.31100       52.96800      149.70200
H          5.04900       54.06800      148.34100
C          5.32800       50.65100      148.32700
H          5.87800       49.92600      147.72800
H          5.70500       50.60700      149.34900
H          4.26800       50.40300      148.31800
C          4.86800       51.53100      143.92000
O          4.00400       50.74400      143.53900
N          5.26400       52.56700      143.18100
H          5.97800       53.18500      143.57000
C          4.80200       52.84900      141.82400
H          3.78800       52.46500      141.70500
C          4.76700       54.36500      141.63900
H          5.76600       54.74400      141.84400
H          4.52400       54.57000      140.60300
S          3.58000       55.29700      142.63400
C          5.66900       52.19600      140.72400
O          5.39600       52.40500      139.53900
N          6.72200       51.45300      141.08500
H          6.88900       51.32600      142.07500
C          7.60500       50.72700      140.15400
H          7.46400       51.10300      139.14000
C          9.07100       50.97200      140.54500
H          9.21100       50.71900      141.59600
H          9.69300       50.28600      139.96900
C          9.59600       52.35800      140.30600
C          9.30800       53.44800      141.05100
H          8.66200       53.44600      141.91800
N          9.94400       54.55700      140.52900
H          9.82600       55.49600      140.89300
C         10.67400       54.23700      139.40700
C         11.45800       55.00000      138.53000
H         11.56800       56.06200      138.68900
C         12.09400       54.36200      137.45100
H         12.70600       54.93400      136.76800
C         11.93400       52.97600      137.26400
H         12.42500       52.48700      136.43500
C         11.13200       52.22200      138.14600
H         11.00900       51.16100      137.98900
C         10.47700       52.83300      139.23900
C          7.30600       49.21900      140.10600
O          7.53800       48.57200      139.09100
N          6.77900       48.62900      141.17200
H          6.57800       47.64600      141.12800
H          6.66200       49.15200      142.03000
