112
-1 1
H          9.54200       51.45300      142.93600
C          9.75900       52.21200      143.68500
H         10.34900       53.00800      143.23600
H         10.31300       51.76200      144.50700
C          8.46300       52.77900      144.21200
O          8.17200       52.65600      145.39900
N          7.69900       53.42900      143.33100
H          8.00100       53.42100      142.37100
C          6.52200       54.24000      143.68800
H          6.82600       54.95200      144.45500
C          6.04200       55.02800      142.45300
H          5.73900       54.31500      141.68500
H          5.15500       55.59800      142.73700
C          7.06600       56.00400      141.84300
H          7.93600       55.44700      141.49400
C          6.43900       56.72000      140.64500
H          7.18100       57.35800      140.16600
H          6.08500       55.99000      139.91700
H          5.59600       57.32800      140.97200
C          7.53400       57.07100      142.83500
H          8.18900       57.78100      142.33100
H          6.67500       57.60100      143.24600
H          8.09400       56.60600      143.64500
C          5.34800       53.46000      144.31000
O          4.50300       54.07700      144.95500
N          5.30600       52.13400      144.16200
H          6.04000       51.67900      143.62400
C          4.36200       51.24200      144.84400
H          3.83100       51.80500      145.61200
C          3.32200       50.71500      143.84000
H          3.82800       50.09400      143.10100
H          2.62600       50.07700      144.38600
S          2.35200       51.98100      142.97300
C          5.09700       50.09700      145.57300
O          4.49100       49.08200      145.91000
N          6.41300       50.23800      145.76600
H          6.82400       51.11000      145.45500
C          7.35200       49.13700      146.00800
H          6.79300       48.20600      146.10700
C          8.33800       48.97300      144.82400
H          9.16000       49.67300      144.97600
H          8.76800       47.97200      144.88700
C          7.82600       49.20500      143.38900
O          7.10600       50.19100      143.10500
O          8.22900       48.43100      142.49300
C          8.15300       49.33100      147.30900
O          8.57900       48.37200      147.94200
N          8.37300       50.56800      147.74200
H          8.05600       51.35300      147.18900
H          8.89000       50.69300      148.59400
H          3.87500       47.06700      143.33300
C          4.87100       47.30800      142.96600
H          5.55000       46.48100      143.16200
H          5.23800       48.19700      143.47000
C          4.81600       47.56700      141.48100
O          3.75200       47.46600      140.88300
N          5.96300       47.90600      140.89200
H          6.76800       48.02300      141.50700
C          6.21700       48.07400      139.45100
H          7.23100       48.45800      139.36400
C          6.20000       46.70700      138.72500
H          5.20700       46.26700      138.82600
H          6.34900       46.89800      137.66200
C          7.25200       45.64900      139.12500
H          7.20000       44.86300      138.37200
C          8.67900       46.20000      139.10900
H          8.81400       46.90800      139.92800
H          9.38800       45.38300      139.23100
H          8.87100       46.70300      138.16100
C          7.00600       44.97600      140.47700
H          7.24300       45.65900      141.29300
H          5.96400       44.66600      140.55100
H          7.64600       44.09900      140.56700
C          5.35800       49.13700      138.73100
O          5.51100       49.34200      137.52700
N          4.50200       49.87000      139.44700
H          4.38900       49.61000      140.41600
C          3.59000       50.88100      138.89400
H          2.98600       50.40500      138.12100
C          2.66100       51.33200      140.02600
H          1.83700       51.90100      139.59500
H          2.24000       50.44500      140.50300
S          3.44500       52.36200      141.29800
C          4.30000       52.08900      138.24400
O          3.67800       52.86500      137.52200
N          5.60100       52.24200      138.49600
H          6.03100       51.54600      139.08700
C          6.50300       53.22400      137.89100
H          5.97900       54.17300      137.77200
C          7.66800       53.41600      138.87200
H          8.40700       54.08400      138.42800
H          7.28200       53.90600      139.76400
C          8.35000       52.15000      139.30100
C          8.02200       51.42000      140.39100
H          7.24200       51.65800      141.10600
N          8.80400       50.28800      140.44900
H          8.69100       49.57800      141.18400
C          9.67600       50.21600      139.38700
C         10.64100       49.27500      139.00300
H         10.81200       48.40000      139.61200
C         11.37100       49.48800      137.82200
H         12.11700       48.77000      137.51000
C         11.12700       50.63500      137.04500
H         11.68700       50.79500      136.13400
C         10.15700       51.57700      137.44300
H          9.97500       52.45200      136.83500
C          9.40600       51.39400      138.62600
C          7.01800       52.81800      136.49600
O          7.66100       53.61600      135.82100
N          6.77400       51.59800      136.03200
H          6.26300       50.92900      136.59300
H          7.12900       51.34900      135.12600
