107
1 1
H         66.34800      101.38400      190.61100
C         66.65300      102.37200      190.95200
H         67.07700      102.93400      190.12200
H         67.40100      102.26300      191.73800
C         65.45500      103.10400      191.50600
O         65.44600      103.45200      192.68000
N         64.46200      103.34200      190.64600
H         64.60900      103.00900      189.70600
C         63.15200      103.96600      190.91500
H         62.75000      104.23600      189.93900
C         62.17700      102.93400      191.50400
H         62.11200      102.08400      190.82300
H         62.57900      102.56600      192.44900
C         60.77200      103.46600      191.72800
C         60.20200      103.44100      193.01600
H         60.75500      103.03400      193.85300
C         58.89800      103.93100      193.22000
H         58.44900      103.90900      194.20200
C         58.16400      104.46700      192.14200
O         56.94400      105.01400      192.36500
H         56.59900      105.49300      191.59100
C         58.72900      104.47900      190.84900
H         58.14800      104.84700      190.01600
C         60.02700      103.97400      190.64300
H         60.44300      103.96200      189.64500
C         63.18100      105.29300      191.70100
O         63.01100      106.35500      191.10300
N         63.41300      105.25600      193.01700
H         63.61400      104.35300      193.42500
C         63.68300      106.44600      193.82700
H         62.89700      107.17200      193.65600
C         63.65400      106.07500      195.31400
H         64.39800      105.29900      195.50000
H         63.94000      106.95400      195.89400
S         62.05200      105.49700      195.94400
C         65.01600      107.12300      193.45900
O         65.12000      108.34500      193.52700
N         66.01900      106.35300      193.02300
H         65.86400      105.35200      192.97200
C         67.34200      106.85700      192.64600
H         67.77500      107.34700      193.52000
C         68.22600      105.65500      192.28800
H         68.23900      104.94300      193.11500
H         67.83800      105.16300      191.39500
H         69.24600      105.98700      192.09500
C         67.30700      107.89700      191.50200
O         66.35600      107.98800      190.72700
N         68.35800      108.69600      191.36600
H         69.13700      108.62400      191.99900
H         68.35400      109.37400      190.62100
H         54.15200      107.33600      189.30200
C         54.92100      108.01900      188.94000
H         54.67700      109.03300      189.25100
H         54.96900      107.96500      187.85400
C         56.25300      107.61800      189.52600
O         56.33300      106.65400      190.28300
N         57.31500      108.35100      189.18200
H         57.16300      109.14700      188.58100
C         58.65900      108.13600      189.74100
H         58.87100      107.06700      189.72300
C         59.71700      108.85300      188.87700
H         59.53800      108.64200      187.82100
H         59.62600      109.93000      189.03000
C         61.14400      108.39200      189.23100
H         61.21000      108.22600      190.29900
H         61.34500      107.44100      188.73700
C         62.21500      109.41800      188.82900
H         62.22600      109.50300      187.74200
H         61.96600      110.39500      189.24700
C         63.61900      109.01200      189.30700
H         63.82000      107.98300      188.99400
H         64.35500      109.66100      188.82600
N         63.77400      109.11300      190.77800
H         63.11700      108.50000      191.25800
H         64.70600      108.82400      191.06400
H         63.58800      110.05200      191.12200
C         58.72200      108.61600      191.19800
O         58.49300      109.79300      191.47100
N         59.13500      107.74100      192.11500
H         59.27100      106.78300      191.83600
C         59.59100      108.14400      193.44800
H         58.76800      108.61700      193.98700
C         60.02000      106.88200      194.20100
H         59.13900      106.26500      194.37200
H         60.70400      106.32300      193.56200
S         60.83800      107.13100      195.79600
C         60.75200      109.14700      193.31900
O         61.70500      108.88100      192.59100
N         60.67300      110.30800      193.98000
H         59.87700      110.45600      194.58100
C         61.61400      111.43400      193.78300
H         61.17900      112.30200      194.27700
C         62.98400      111.18500      194.46100
H         63.53000      110.42500      193.90500
C         63.83100      112.46500      194.50000
H         64.79100      112.25600      194.97300
H         64.02900      112.82800      193.49200
H         63.31800      113.24200      195.06600
C         62.83700      110.70100      195.91200
H         62.35100      109.72800      195.93800
H         63.82200      110.59100      196.36500
H         62.25400      111.41600      196.49200
C         61.72800      111.80100      192.28800
O         62.75000      111.61000      191.63200
N         60.63400      112.25100      191.69000
H         59.76700      112.31400      192.19900
H         60.67700      112.47800      190.71100
