107
1 1
H         54.47300      105.39100      187.95100
C         54.99500      104.56700      187.46700
H         54.83000      104.60800      186.39200
H         54.61500      103.62100      187.85200
C         56.47400      104.66100      187.75300
O         57.04900      103.75400      188.34600
N         57.09500      105.77400      187.35800
H         56.55400      106.46600      186.86200
C         58.55300      105.97000      187.44300
H         59.02000      105.17900      186.85400
C         58.93200      107.31300      186.79600
H         59.93900      107.20800      186.39100
H         58.27600      107.51600      185.94700
C         58.92200      108.50800      187.73400
C         60.14400      109.06800      188.15900
H         61.08200      108.66300      187.80200
C         60.15100      110.16700      189.03600
H         61.08400      110.62000      189.33300
C         58.93400      110.69500      189.51700
O         58.93600      111.72500      190.40100
H         59.78200      111.81000      190.86500
C         57.71200      110.13300      189.09500
H         56.78800      110.55500      189.46200
C         57.70500      109.04800      188.19600
H         56.76200      108.64200      187.86100
C         59.12500      105.85700      188.87300
O         60.29500      105.50300      189.03800
N         58.29300      106.07300      189.90200
H         57.36900      106.41500      189.69200
C         58.62600      105.82100      191.30500
H         59.44100      106.47500      191.58900
C         57.41300      106.15600      192.18000
H         56.55300      105.59200      191.81800
H         57.61400      105.82300      193.20000
S         56.95300      107.90800      192.25800
C         59.09300      104.37700      191.55700
O         60.03300      104.17400      192.32400
N         58.51100      103.38900      190.86800
H         57.77100      103.62400      190.21700
C         59.10000      102.05900      190.73800
H         59.60300      101.79000      191.66800
C         57.98400      101.03300      190.49800
H         58.41700      100.03700      190.39300
H         57.30000      101.02800      191.34800
H         57.42300      101.27500      189.59500
C         60.16500      102.07300      189.62500
O         61.36200      102.02900      189.89800
N         59.76300      102.25000      188.37200
H         60.44900      102.26500      187.63700
H         58.77700      102.36500      188.17600
H         58.63400      104.97900      196.03400
C         59.37200      105.34400      196.74700
H         59.80700      104.50900      197.29400
H         58.89100      106.02400      197.45000
C         60.46200      106.08700      196.01300
O         60.68400      107.26600      196.26100
N         61.13700      105.41100      195.08000
H         60.85500      104.45700      194.90400
C         62.21800      105.97000      194.24700
H         62.86200      106.57300      194.89000
C         63.06200      104.80300      193.68400
H         63.36100      104.15700      194.51200
H         62.43800      104.19600      193.03300
C         64.34500      105.23200      192.93900
H         64.28800      106.27200      192.62100
H         65.17400      105.16500      193.64500
C         64.67700      104.35600      191.71300
H         65.74900      104.44400      191.53300
H         64.46800      103.30700      191.93000
C         63.96700      104.78800      190.41400
H         64.13800      105.85900      190.26900
H         64.42800      104.26200      189.57400
N         62.51100      104.51900      190.42200
H         62.29100      103.52600      190.46200
H         62.06900      104.99200      191.20600
H         62.04400      104.90500      189.60600
C         61.66500      106.91700      193.16600
O         61.85400      106.68100      191.97500
N         60.96100      107.98100      193.54500
H         60.80100      108.09300      194.54200
C         60.37500      108.98200      192.63900
H         59.94400      108.46500      191.78300
C         59.21900      109.68800      193.35600
H         59.62000      110.23000      194.21300
H         58.77700      110.42400      192.68300
S         57.88600      108.60100      193.93900
C         61.41700      109.95400      192.03800
O         61.18400      111.15900      191.94200
N         62.56800      109.42500      191.61400
H         62.63700      108.41400      191.61800
C         63.72900      110.14500      191.06500
H         63.38900      111.08400      190.62700
C         64.76700      110.48200      192.16100
H         65.62100      110.95300      191.67300
C         64.22100      111.48700      193.18000
H         63.83300      112.36600      192.66400
H         63.42000      111.04200      193.77000
H         65.02000      111.80200      193.85200
C         65.28100      109.24700      192.91500
H         64.46800      108.77000      193.46300
H         65.72000      108.53300      192.21900
H         66.05000      109.55100      193.62600
C         64.38100      109.32300      189.94700
O         64.24200      108.10300      189.88800
N         65.10700      109.96700      189.04400
H         65.54300      109.43300      188.31000
H         65.22300      110.96600      189.09900
