107
1 1
H         63.99600      102.08300      195.10900
C         63.87500      102.36700      196.15400
H         64.80700      102.79500      196.52000
H         63.61500      101.48700      196.74000
C         62.77500      103.39400      196.26400
O         62.22400      103.82100      195.25100
N         62.45600      103.80600      197.49500
H         62.93400      103.39500      198.28200
C         61.42500      104.82300      197.74000
H         60.48500      104.45900      197.32200
C         61.20500      105.05600      199.24100
H         60.80200      104.14800      199.69100
H         62.16200      105.27200      199.71900
C         60.24700      106.20700      199.50100
C         60.74200      107.46500      199.89800
H         61.79800      107.60500      200.08800
C         59.86400      108.55600      200.03700
H         60.23200      109.52500      200.34000
C         58.48800      108.39700      199.77300
O         57.66700      109.47500      199.83200
H         56.79000      109.30100      199.44700
C         57.98800      107.13100      199.39800
H         56.92900      107.00500      199.23000
C         58.86800      106.04000      199.26200
H         58.48200      105.07200      198.97100
C         61.75000      106.13500      197.01600
O         60.93100      106.59500      196.22300
N         62.95700      106.68000      197.21100
H         63.57900      106.23600      197.86800
C         63.54400      107.66800      196.30600
H         62.75900      108.26900      195.86900
C         64.47100      108.62800      197.06100
H         65.17900      108.05200      197.66000
H         65.04900      109.19300      196.32900
S         63.63000      109.83100      198.12700
C         64.27200      106.95700      195.16000
O         65.32400      106.36200      195.37700
N         63.70400      107.00900      193.95100
H         62.85900      107.56400      193.85300
C         64.30300      106.45600      192.73000
H         65.34900      106.76400      192.68100
C         64.24600      104.91800      192.75700
H         63.21400      104.57300      192.79400
H         64.71800      104.51800      191.85900
H         64.78200      104.53200      193.62400
C         63.57600      106.97600      191.47900
O         62.35000      107.04600      191.46300
N         64.29600      107.29700      190.41300
H         65.30000      107.21400      190.43100
H         63.81500      107.61400      189.58700
H         53.23800      110.26800      196.63000
C         53.33400      109.46700      197.36100
H         52.64100      108.66200      197.12400
H         53.11100      109.85600      198.35400
C         54.74900      108.93800      197.34500
O         55.44200      108.99300      198.35700
N         55.18900      108.41600      196.19700
H         54.57200      108.44500      195.40000
C         56.57500      107.96800      195.99400
H         56.91600      107.49900      196.91700
C         56.63900      106.91200      194.87500
H         55.90700      106.12600      195.07000
H         56.40500      107.38400      193.91800
C         58.03900      106.28300      194.81200
H         58.76500      107.08400      194.71500
H         58.23500      105.74300      195.74000
C         58.23400      105.33500      193.62200
H         57.55100      104.48900      193.71800
H         58.00000      105.86200      192.69600
C         59.67800      104.81000      193.55200
H         59.87500      104.18600      194.42900
H         59.77800      104.18200      192.66300
N         60.67600      105.90500      193.50300
H         60.48800      106.56800      192.75000
H         60.65700      106.44800      194.36500
H         61.61200      105.54200      193.40000
C         57.50600      109.15400      195.70600
O         57.19700      110.00700      194.87700
N         58.69000      109.15200      196.31600
H         58.88300      108.42000      196.98200
C         59.79000      110.04300      195.95200
H         59.42400      111.07100      195.93900
C         60.83600      109.93600      197.06600
H         60.38200      110.28500      197.99300
H         61.08000      108.88600      197.20500
S         62.39000      110.83700      196.85200
C         60.32900      109.70100      194.54100
O         61.07600      108.73700      194.34900
N         59.93100      110.50400      193.54700
H         59.26700      111.22300      193.79900
C         60.19500      110.32300      192.10200
H         59.72700      111.17300      191.60700
C         61.70600      110.42700      191.76900
H         62.24700      109.62000      192.26000
C         61.99300      110.33000      190.26400
H         61.44200      111.10000      189.72300
H         63.06000      110.46500      190.08300
H         61.71500      109.34500      189.89000
C         62.29500      111.75700      192.26000
H         62.21900      111.82800      193.34500
H         63.35100      111.81700      191.99600
H         61.76700      112.59600      191.80600
C         59.52000      109.07300      191.50300
O         59.45100      108.00100      192.09900
N         58.98500      109.18400      190.29400
H         59.03100      110.05500      189.79300
H         58.53600      108.37600      189.89400
