104
0 1
H         78.17400       10.73600      -26.47100
C         77.17400       10.34700      -26.29000
H         76.97200        9.52400      -26.97300
H         76.44000       11.13700      -26.43900
C         77.08400        9.84700      -24.87000
O         78.06000        9.92300      -24.12900
N         75.91800        9.32600      -24.50200
H         75.18600        9.24700      -25.19200
C         75.63100        8.75400      -23.18200
H         76.56200        8.72500      -22.61900
C         74.64600        9.66100      -22.41700
H         75.14400       10.60800      -22.20700
H         73.80300        9.87800      -23.07400
C         74.06500        9.11000      -21.09800
H         73.39100        9.86700      -20.69100
H         73.46200        8.22700      -21.31900
C         75.10600        8.74100      -20.02900
O         76.21300        8.26400      -20.36200
O         74.83500        8.89200      -18.81900
C         75.12700        7.30700      -23.30500
O         74.29700        7.00100      -24.15900
N         75.66200        6.42300      -22.46100
H         76.22300        6.80700      -21.70400
C         75.36800        4.99000      -22.39100
H         74.29700        4.86300      -22.22900
C         75.73300        4.30500      -23.73000
H         75.67400        3.22500      -23.60400
H         74.95000        4.56300      -24.44300
S         77.31100        4.67400      -24.56100
C         76.09400        4.33400      -21.19300
O         76.77200        5.00100      -20.40600
N         75.98500        3.01000      -21.05600
H         75.41400        2.49400      -21.71000
C         76.79200        2.20200      -20.14100
H         77.75600        2.68800      -19.99900
C         76.08500        2.11600      -18.78100
H         75.12300        1.61300      -18.89500
H         76.70300        1.55100      -18.08200
H         75.92100        3.11700      -18.38200
C         77.05600        0.81000      -20.74100
O         76.23600        0.28400      -21.48600
N         78.18900        0.19700      -20.42900
H         78.36300       -0.71400      -20.81900
H         78.88600        0.67400      -19.87100
H         82.51200       11.34900      -24.34600
C         81.43700       11.37200      -24.17000
H         80.95900       10.55600      -24.70700
H         81.03000       12.32400      -24.50400
C         81.18000       11.21400      -22.69000
O         82.11500       11.14800      -21.90500
N         79.90300       11.14500      -22.31800
H         79.20200       11.14300      -23.05000
C         79.44700       10.87500      -20.94800
H         80.17200       11.30400      -20.25400
C         78.09500       11.60000      -20.77200
H         78.23400       12.65000      -21.03500
H         77.38700       11.17100      -21.48200
C         77.46200       11.53600      -19.36900
H         77.24300       10.50500      -19.11000
C         78.36700       12.13100      -18.28700
H         79.27100       11.53000      -18.18600
H         78.64100       13.15300      -18.55000
H         77.84500       12.13400      -17.33100
C         76.14600       12.31300      -19.36200
H         76.32500       13.36600      -19.58300
H         75.47100       11.89700      -20.10900
H         75.67000       12.22100      -18.38700
C         79.35700        9.36400      -20.63900
O         79.28400        8.96900      -19.47400
N         79.34800        8.52400      -21.67800
H         79.37500        8.94300      -22.59700
C         79.09700        7.08700      -21.59500
H         78.09400        6.95600      -21.19700
C         79.11400        6.51100      -23.01300
H         78.37500        7.04900      -23.61000
H         80.09400        6.69900      -23.45300
S         78.77100        4.73400      -23.14600
C         80.06400        6.31500      -20.68000
O         81.28600        6.42400      -20.78400
N         79.50300        5.44700      -19.82900
H         78.49200        5.36300      -19.88400
C         80.22300        4.50000      -18.95900
H         81.13800        4.97500      -18.60100
C         79.35000        4.13900      -17.73400
H         78.31800        3.98500      -18.04900
H         79.70500        3.19500      -17.31600
C         79.39600        5.16000      -16.58100
H         78.75300        4.79200      -15.77900
H         80.41600        5.18800      -16.19300
C         78.97800        6.60000      -16.91100
H         79.05900        7.19800      -16.00300
H         79.67200        7.01600      -17.64200
C         77.54200        6.69400      -17.44200
H         77.43800        6.05400      -18.32200
H         76.84200        6.34000      -16.68100
N         77.21900        8.08200      -17.82400
H         76.31000        8.14300      -18.29900
H         77.19800        8.72700      -17.05400
H         77.85900        8.42100      -18.53900
C         80.67600        3.27200      -19.76700
O         80.20700        2.15600      -19.56400
N         81.55300        3.47400      -20.73600
H         81.87600        4.41600      -20.91500
H         81.84700        2.69500      -21.29900
