104
0 1
H         76.12600       14.12700      -24.55200
C         76.08600       13.38900      -23.75300
H         76.91200       12.69100      -23.86000
H         75.14200       12.85000      -23.81200
C         76.17200       14.10100      -22.42000
O         75.26400       13.97700      -21.61100
N         77.24500       14.82600      -22.12600
H         77.20200       15.37200      -21.26900
C         78.54600       14.81600      -22.82600
H         78.36200       14.87600      -23.89900
C         79.36300       16.07100      -22.44600
H         80.15000       16.20500      -23.18900
H         78.71200       16.94400      -22.50800
C         80.02800       16.04000      -21.05800
H         80.84800       15.32100      -21.08100
H         80.45400       17.02200      -20.84600
C         79.04000       15.65800      -19.95600
O         78.02400       16.36700      -19.78600
O         79.17500       14.56800      -19.35800
C         79.36400       13.52600      -22.59400
O         80.39500       13.34400      -23.23300
N         78.89500       12.62200      -21.72200
H         78.10500       12.90000      -21.15600
C         79.53600       11.34300      -21.39000
H         78.89300       10.85500      -20.66600
C         79.57500       10.41500      -22.61800
H         80.23100       10.86800      -23.36300
H         80.04100        9.47300      -22.32700
S         78.00000       10.02000      -23.43100
C         80.90300       11.46200      -20.68000
O         81.70800       10.53200      -20.74600
N         81.17800       12.56400      -19.97400
H         80.46500       13.28400      -19.87800
C         82.43400       12.73000      -19.23900
H         83.25100       12.49200      -19.92200
C         82.59400       14.19500      -18.81800
H         83.52000       14.32100      -18.25600
H         82.63500       14.83000      -19.70300
H         81.75400       14.50200      -18.19600
C         82.54400       11.76700      -18.03800
O         81.56400       11.43000      -17.37600
N         83.75300       11.33400      -17.70600
H         84.55300       11.60000      -18.25400
H         83.83400       10.70200      -16.92600
H         79.05000       14.36100      -15.34800
C         79.45500       13.58900      -15.99900
H         80.21000       13.01500      -15.46500
H         79.90200       14.04500      -16.87900
C         78.34500       12.67000      -16.44600
O         77.17900       12.99800      -16.24000
N         78.72100       11.53200      -17.03600
H         79.72300       11.41200      -17.14800
C         77.85700       10.49300      -17.62200
H         78.54000        9.73900      -18.01200
C         77.04000        9.82000      -16.49100
H         77.73000        9.55300      -15.68900
H         76.34300       10.55600      -16.08900
C         76.22500        8.56400      -16.85600
H         75.47300        8.81700      -17.60100
C         77.10300        7.43100      -17.39600
H         77.59400        7.72200      -18.32200
H         77.86300        7.16800      -16.65900
H         76.48700        6.55500      -17.59600
C         75.49700        8.04600      -15.61600
H         74.84200        8.82400      -15.22400
H         74.88900        7.18000      -15.88000
H         76.21600        7.76100      -14.84700
C         77.02400       10.97100      -18.83600
O         76.86300       12.16000      -19.09400
N         76.51600       10.04400      -19.64700
H         76.67200        9.07100      -19.43900
C         75.62300       10.37000      -20.75900
H         76.00700       11.24200      -21.29200
C         75.59200        9.18500      -21.73300
H         75.06200        8.36100      -21.25300
H         75.01400        9.47400      -22.61200
S         77.19100        8.53800      -22.29400
C         74.20700       10.67900      -20.23500
O         73.52400        9.77400      -19.75300
N         73.73200       11.92700      -20.34700
H         74.33800       12.63600      -20.75500
C         72.35900       12.33300      -19.98000
H         72.04800       11.75800      -19.10600
C         72.30600       13.83000      -19.59300
H         72.89600       14.42400      -20.29300
H         71.27200       14.17000      -19.67700
C         72.72400       14.12400      -18.13800
H         72.44300       15.15300      -17.90600
H         72.14700       13.47600      -17.47800
C         74.21200       13.95200      -17.80300
H         74.34100       14.07100      -16.72600
H         74.53800       12.94600      -18.06300
C         75.07900       14.99600      -18.51600
H         74.89500       14.95100      -19.59200
H         74.80300       15.99200      -18.16400
N         76.51100       14.75300      -18.25700
H         76.72300       14.61600      -17.27700
H         76.82300       13.89500      -18.70500
H         77.11300       15.47600      -18.65600
C         71.35700       11.95600      -21.08600
O         70.73400       12.79700      -21.71800
N         71.21500       10.66900      -21.36100
H         71.75300        9.99300      -20.83800
H         70.57200       10.40200      -22.08600
