116
2 1
H        -19.46200       12.82000       -8.15900
C        -19.32200       12.13200       -8.99200
H        -20.27500       11.98400       -9.49900
H        -18.95500       11.17600       -8.62400
C        -18.33000       12.71800       -9.96900
O        -18.66000       12.94200      -11.12800
N        -17.09700       12.96400       -9.51200
H        -16.90800       12.74200       -8.54600
C        -16.01800       13.55400      -10.32600
H        -16.44800       14.40300      -10.86100
C        -14.89800       14.09000       -9.40000
H        -15.34600       14.36400       -8.44300
H        -14.15900       13.31600       -9.18600
C        -14.19800       15.36100       -9.91900
H        -14.96200       16.13200      -10.03200
H        -13.51100       15.70800       -9.14600
C        -13.42000       15.28000      -11.24600
H        -14.06400       14.89700      -12.03900
H        -13.16500       16.30400      -11.52100
C        -12.09800       14.49500      -11.17200
H        -11.32800       15.09400      -11.66600
H        -11.80300       14.36800      -10.12700
N        -12.18900       13.18400      -11.85500
H        -12.61600       13.28800      -12.77300
H        -11.28900       12.74500      -12.03000
H        -12.79800       12.53800      -11.35900
C        -15.52400       12.55600      -11.38700
O        -14.49900       11.90000      -11.20000
N        -16.23600       12.45000      -12.50700
H        -17.12400       12.93800      -12.53900
C        -15.87200       11.58800      -13.63500
H        -15.75800       10.57200      -13.25200
C        -17.02200       11.57300      -14.64900
H        -16.86300       10.74800      -15.34300
H        -17.96000       11.38100      -14.12400
S        -17.20700       13.08600      -15.62400
C        -14.53300       11.98400      -14.29700
O        -13.93200       13.01300      -13.97600
N        -14.04600       11.14600      -15.21300
H        -14.61200       10.35700      -15.48600
C        -12.75900       11.30000      -15.90200
H        -12.29400       12.23500      -15.59000
C        -11.84800       10.13200      -15.46000
H        -12.08300        9.85900      -14.42900
H        -12.07700        9.26400      -16.08000
C        -10.33100       10.39900      -15.52700
H         -9.82000        9.44600      -15.38900
H        -10.05500       10.77100      -16.51100
C         -9.79900       11.36200      -14.46000
O        -10.51500       11.93600      -13.65100
N         -8.50400       11.58300      -14.42300
H         -8.15900       12.20300      -13.71100
H         -7.88000       11.10800      -15.05200
C        -12.96800       11.38400      -17.43000
O        -14.07800       11.21600      -17.93300
N        -11.92200       11.65500      -18.19800
H        -12.04000       11.57100      -19.20000
H        -11.01300       11.81000      -17.79900
H        -18.09700       19.73600      -18.05800
C        -17.27100       19.03600      -17.94700
H        -16.98100       18.98600      -16.89700
H        -16.42200       19.36500      -18.54200
C        -17.70800       17.66300      -18.40100
O        -17.68700       16.71700      -17.62300
N        -18.10400       17.54100      -19.67200
H        -18.08600       18.36900      -20.24800
C        -18.58000       16.27700      -20.25600
H        -19.43500       15.93300      -19.67000
C        -19.04500       16.51600      -21.70600
H        -19.78800       17.31400      -21.72600
H        -18.18800       16.84600      -22.29400
C        -19.67000       15.24600      -22.32300
H        -19.24500       14.34800      -21.87800
H        -20.73500       15.23700      -22.08500
C        -19.50400       15.13200      -23.84800
H        -19.98000       14.20200      -24.16500
H        -20.04400       15.95200      -24.32400
C        -18.05300       15.13300      -24.36800
H        -18.07100       14.80500      -25.41200
H        -17.67000       16.15800      -24.35500
N        -17.14100       14.25800      -23.58900
H        -17.56400       13.37600      -23.32100
H        -16.30100       14.01900      -24.11400
H        -16.84500       14.69100      -22.71600
C        -17.49400       15.19100      -20.20000
O        -16.53500       15.24800      -20.97400
N        -17.72400       14.15700      -19.39100
H        -18.49900       14.24700      -18.75000
C        -16.86400       12.98000      -19.21100
H        -15.99900       13.28400      -18.61900
C        -17.64500       11.92500      -18.41300
H        -18.35100       11.44100      -19.09100
H        -16.95100       11.16300      -18.05700
S        -18.60300       12.55900      -17.00400
C        -16.36100       12.38600      -20.54500
O        -17.07600       12.40300      -21.55300
N        -15.12500       11.87900      -20.56800
H        -14.62600       11.78600      -19.68700
C        -14.38700       11.56100      -21.79700
H        -15.09600       11.29000      -22.58100
C        -13.62000       12.82700      -22.23800
H        -14.31000       13.67000      -22.29500
H        -12.88100       13.06700      -21.47100
C        -12.88300       12.69300      -23.58400
H        -12.23300       13.56000      -23.71000
H        -12.24700       11.80800      -23.57400
C        -13.81600       12.63700      -24.79300
O        -14.98500       12.99200      -24.73600
N        -13.34100       12.19500      -25.93500
H        -12.37800       11.92200      -26.02600
H        -13.97000       12.18100      -26.72000
C        -13.43000       10.37800      -21.58400
O        -12.53600       10.43900      -20.74800
N        -13.56400        9.31200      -22.36100
H        -12.93000        8.54000      -22.22300
H        -14.30400        9.26000      -23.04200
