116
2 1
H        -19.96300        6.47600      -16.36200
C        -19.29900        5.81600      -16.91700
H        -19.88600        5.07600      -17.46000
H        -18.63200        5.30900      -16.22100
C        -18.48200        6.62700      -17.89500
O        -17.25500        6.61400      -17.83400
N        -19.15900        7.33400      -18.80500
H        -20.16600        7.28300      -18.77700
C        -18.52500        8.21500      -19.80100
H        -17.71900        7.64900      -20.27300
C        -19.53000        8.59700      -20.91000
H        -19.02300        9.26900      -21.60100
H        -19.77900        7.69900      -21.47800
C        -20.85400        9.22900      -20.41200
H        -21.62000        8.45200      -20.40400
H        -20.75800        9.56900      -19.38300
C        -21.37100       10.40800      -21.25800
H        -21.63100       10.03700      -22.25100
H        -22.28700       10.78700      -20.79900
C        -20.37800       11.57200      -21.41900
H        -19.53100       11.22200      -22.01500
H        -20.86000       12.37700      -21.98300
N        -19.87700       12.09300      -20.12500
H        -19.01400       12.61300      -20.25900
H        -20.53700       12.70400      -19.64200
H        -19.63700       11.34600      -19.47900
C        -17.88500        9.45300      -19.15400
O        -18.57000       10.22800      -18.48700
N        -16.60400        9.70000      -19.41800
H        -16.08600        9.01800      -19.94800
C        -15.85700       10.82700      -18.84300
H        -15.92500       10.74700      -17.75600
C        -14.37700       10.68900      -19.23000
H        -14.27600       10.86300      -20.30300
H        -13.79300       11.44800      -18.70800
S        -13.68500        9.05900      -18.84700
C        -16.41600       12.21100      -19.23700
O        -17.08500       12.36100      -20.26300
N        -16.15000       13.22300      -18.40700
H        -15.62800       13.02800      -17.56100
C        -16.42400       14.65000      -18.64200
H        -16.08800       14.91300      -19.64600
C        -17.93400       14.95100      -18.54000
H        -18.10400       16.00300      -18.77700
H        -18.43500       14.37300      -19.31400
C        -18.57600       14.65200      -17.16900
H        -18.15700       13.73800      -16.74800
H        -18.34800       15.47000      -16.48400
C        -20.09000       14.45500      -17.25500
O        -20.61500       13.86000      -18.18800
N        -20.84800       14.91400      -16.28600
H        -21.84000       14.77400      -16.37500
H        -20.45100       15.40200      -15.50200
C        -15.62200       15.49500      -17.63600
O        -15.18100       14.98100      -16.61500
N        -15.42800       16.78100      -17.89500
H        -14.89900       17.32400      -17.22900
H        -15.78900       17.20200      -18.73500
H        -12.76900        7.51600      -21.92700
C        -11.80700        7.10600      -21.62300
H        -11.11800        7.91800      -21.39800
H        -11.40500        6.49700      -22.43200
C        -11.99900        6.24700      -20.39600
O        -13.10900        6.12000      -19.89100
N        -10.91400        5.66400      -19.88300
H        -10.03400        5.81600      -20.35400
C        -10.93900        4.73100      -18.73800
H        -11.88600        4.19600      -18.80900
C         -9.81800        3.67700      -18.92100
H         -9.68600        3.51600      -19.99300
H         -8.86800        4.06000      -18.54200
C        -10.13400        2.28800      -18.32000
H        -11.21400        2.15300      -18.25500
H         -9.77900        1.53500      -19.02500
C         -9.46600        1.98300      -16.96300
H         -8.69700        1.22400      -17.12200
H         -8.95700        2.86600      -16.57500
C        -10.44500        1.45900      -15.90000
H        -10.93300        0.55200      -16.26600
H         -9.86800        1.20000      -15.00700
N        -11.45300        2.48600      -15.55600
H        -11.96300        2.30800      -14.69500
H        -11.01100        3.39600      -15.44600
H        -12.14500        2.61500      -16.29100
C        -10.97100        5.43100      -17.36100
O        -10.46300        4.89000      -16.38400
N        -11.54500        6.63300      -17.25300
H        -12.01200        7.01100      -18.06400
C        -11.52800        7.43000      -16.01200
H        -10.50000        7.48200      -15.64800
C        -11.99600        8.86100      -16.32000
H        -11.86600        9.45200      -15.41100
H        -11.36200        9.30000      -17.09100
S        -13.73600        8.98900      -16.81800
C        -12.38300        6.84900      -14.86300
O        -12.10300        7.10700      -13.69800
N        -13.43900        6.09300      -15.17500
H        -13.63200        5.94100      -16.15400
C        -14.40000        5.57100      -14.19400
H        -14.68600        6.40700      -13.55200
C        -15.68400        5.09500      -14.90800
H        -16.41600        4.83400      -14.14300
H        -16.09600        5.93600      -15.46700
C        -15.54500        3.88400      -15.85700
H        -15.22000        3.01100      -15.29300
H        -16.52700        3.66100      -16.27400
C        -14.58100        4.11600      -17.01800
O        -13.53500        3.48900      -17.12400
N        -14.82500        5.10500      -17.85100
H        -15.69500        5.63100      -17.78800
H        -14.20700        5.25500      -18.64300
C        -13.80000        4.48700      -13.27600
O        -13.13200        3.55900      -13.72700
N        -14.07200        4.55200      -11.97900
H        -13.68300        3.85000      -11.37000
H        -14.60000        5.32300      -11.60600
