107
0 1
H         10.69400       -6.15600        0.92000
C         11.57100       -5.99200        0.29600
H         11.32500       -6.17700       -0.74800
H         12.36900       -6.66500        0.60600
C         12.04100       -4.56600        0.45500
O         13.16400       -4.33100        0.88400
N         11.17600       -3.60900        0.11900
H         10.26600       -3.89500       -0.20600
C         11.44100       -2.16100        0.19900
H         12.46800       -2.02300       -0.13900
C         10.54400       -1.40200       -0.81600
H         10.75300       -1.83200       -1.79700
C          9.03300       -1.59300       -0.57400
H          8.73400       -1.14200        0.37200
H          8.47000       -1.11200       -1.37500
H          8.77000       -2.65000       -0.56400
C         10.84800        0.11000       -0.92600
H         10.63500        0.61200        0.01700
H         10.18900        0.54000       -1.68100
C         12.29100        0.41900       -1.34500
H         12.39600        1.49200       -1.50800
H         12.98800        0.11700       -0.56400
H         12.53100       -0.10400       -2.27200
C         11.41600       -1.64600        1.65600
O         10.56000       -0.86800        2.06900
N         12.35600       -2.13000        2.46900
H         13.00300       -2.80400        2.07500
C         12.49000       -1.78800        3.88500
H         11.51800       -1.91800        4.36400
C         13.47000       -2.79000        4.51700
H         13.23900       -3.78200        4.12600
H         14.48400       -2.54800        4.19500
S         13.44600       -2.93200        6.32600
C         12.92600       -0.32000        4.04600
O         14.10300        0.00600        3.88800
N         11.97500        0.57200        4.33700
H         11.02700        0.22900        4.43200
C         12.12200        2.03900        4.36400
H         13.16400        2.29500        4.54500
C         11.69100        2.63800        2.99500
H         10.69500        2.24900        2.77300
C         11.57000        4.17400        3.00900
H         12.48600        4.62800        3.38800
H         11.37900        4.54200        2.00000
H         10.73000        4.48100        3.63200
C         12.60400        2.22000        1.81800
H         12.63800        1.13400        1.75500
H         12.14900        2.57000        0.89100
C         14.04500        2.75000        1.86100
H         14.60100        2.34200        1.01700
H         14.05400        3.83700        1.78900
H         14.53700        2.44600        2.78200
C         11.29700        2.61400        5.53000
O         10.29900        2.03100        5.93800
N         11.69700        3.75000        6.08600
H         11.13800        4.15600        6.82500
H         12.54300        4.19700        5.76400
H         16.46700        6.18100        4.54900
C         16.09100        5.85600        5.51800
H         15.18000        6.40100        5.76000
H         16.84500        6.04200        6.28100
C         15.79100        4.37800        5.46400
O         14.64700        3.97500        5.66000
N         16.82100        3.57200        5.21500
H         17.74100        3.98800        5.11500
C         16.73500        2.10800        5.16900
H         16.02300        1.85300        4.38400
C         18.09000        1.49400        4.75600
H         17.91000        0.45300        4.48700
H         18.44200        2.00100        3.85600
C         19.21800        1.50800        5.80800
H         18.92600        0.89000        6.65700
H         20.10500        1.04900        5.37100
C         19.61200        2.89900        6.30400
O         19.60900        3.88100        5.57900
N         19.96600        3.04800        7.56000
H         19.90800        2.27500        8.19800
H         20.21400        3.97700        7.84600
C         16.19200        1.54200        6.49200
O         16.70100        1.83900        7.57400
N         15.10900        0.76900        6.39500
H         14.79000        0.54200        5.46000
C         14.30700        0.25200        7.51000
H         13.36000       -0.08100        7.08500
C         14.98800       -0.98400        8.10600
H         15.93700       -0.67800        8.54600
H         14.36100       -1.37100        8.91100
S         15.30100       -2.34000        6.94000
C         13.92300        1.31400        8.56500
O         13.73200        0.99300        9.73500
N         13.83700        2.58400        8.15300
H         14.03800        2.77100        7.17800
C         13.59100        3.75500        8.99800
H         13.70400        4.61400        8.33300
C         12.12600        3.74700        9.48000
H         11.51500        3.11700        8.83500
H         12.06800        3.34200       10.49100
C         11.53300        5.13800        9.45000
O         10.76700        5.48500        8.56900
N         11.92400        5.99600       10.36000
H         12.65700        5.72300       11.00500
H         11.53500        6.91900       10.32000
C         14.63000        3.98800       10.12200
O         14.37600        4.73500       11.06400
N         15.81400        3.39200       10.04600
H         16.02400        2.77800        9.27000
H         16.46900        3.53100       10.79600
