107
0 1
H         13.10900       -0.69000        7.78300
C         12.87100       -0.61800        6.72800
H         13.10900        0.38000        6.36500
H         11.81500       -0.82600        6.56500
C         13.69500       -1.63300        5.97400
O         13.14900       -2.62000        5.50100
N         14.99900       -1.38400        5.86800
H         15.35900       -0.60000        6.40300
C         15.94700       -2.15200        5.03500
H         15.44500       -3.06200        4.70100
C         16.35500       -1.35900        3.75900
H         16.99700       -0.53600        4.07600
C         17.16300       -2.23100        2.77500
H         17.35000       -1.67700        1.85400
H         18.13000       -2.50300        3.19500
H         16.61700       -3.14400        2.53800
C         15.17200       -0.71500        2.99000
H         15.58000       -0.06200        2.21800
H         14.60400       -0.07400        3.66300
C         14.20100       -1.69200        2.30800
H         14.69700       -2.20500        1.48400
H         13.83200       -2.42800        3.01900
H         13.35400       -1.13400        1.90700
C         17.13400       -2.61300        5.90200
O         18.29500       -2.31400        5.62800
N         16.83000       -3.26700        7.02500
H         15.84800       -3.47100        7.18400
C         17.74600       -3.65800        8.10200
H         17.11100       -4.02500        8.89400
C         18.58500       -4.87000        7.69900
H         18.95600       -4.73300        6.68200
H         19.44500       -4.95700        8.36100
S         17.64500       -6.41700        7.79100
C         18.52500       -2.50400        8.75500
O         18.18400       -2.12000        9.87500
N         19.52500       -1.93900        8.07500
H         19.70800       -2.30600        7.14900
C         20.12300       -0.63700        8.41800
H         20.16200       -0.54600        9.50400
C         21.57400       -0.53400        7.88900
H         21.93700        0.46200        8.14800
C         22.47100       -1.54500        8.62500
H         23.51900       -1.36300        8.39300
H         22.34600       -1.43600        9.70300
H         22.21500       -2.56500        8.33600
C         21.67300       -0.68300        6.35100
H         21.36300       -1.68600        6.05600
H         21.00200        0.03200        5.87700
C         23.07600       -0.42200        5.79000
H         23.43500        0.55300        6.12100
H         23.76900       -1.19800        6.11700
H         23.03500       -0.43300        4.70000
C         19.26300        0.53600        7.91600
O         19.24300        1.60200        8.52000
N         18.48900        0.36800        6.85200
H         18.49600       -0.51600        6.36200
H         17.88600        1.12200        6.56800
H         11.61900       -4.31600        9.37300
C         12.12800       -3.75500        8.59300
H         11.59200       -2.83100        8.38700
H         12.16900       -4.34900        7.67900
C         13.53700       -3.44300        9.03300
O         14.49000       -4.00100        8.50100
N         13.68400       -2.55900       10.02000
H         12.85100       -2.16200       10.42200
C         14.98100       -2.14300       10.57700
H         15.67100       -2.00600        9.74400
C         14.84300       -0.78200       11.29100
H         14.05400       -0.85200       12.04200
H         15.77800       -0.55400       11.80700
C         14.53300        0.39100       10.34700
H         13.62100        0.19200        9.78900
H         14.36000        1.28200       10.95100
C         15.67900        0.67800        9.37900
O         15.67400        0.26000        8.23000
N         16.69600        1.38200        9.82500
H         16.72800        1.70100       10.77400
H         17.48700        1.53800        9.20700
C         15.61600       -3.21900       11.48600
O         15.84600       -2.99500       12.67300
N         15.91100       -4.40000       10.93400
H         15.64700       -4.53200        9.96400
C         16.52900       -5.53300       11.63300
H         15.87900       -5.76100       12.48000
C         16.52500       -6.77400       10.71800
H         16.43500       -7.63600       11.38000
H         15.63600       -6.77100       10.08600
S         17.99100       -7.10600        9.68500
C         17.93000       -5.27200       12.23900
O         18.46300       -6.13000       12.94100
N         18.54500       -4.11000       11.98600
H         18.08500       -3.44900       11.37200
C         19.80900       -3.67100       12.59200
H         20.11500       -4.39500       13.34800
C         20.91100       -3.61700       11.51400
H         20.67200       -2.82600       10.80700
H         21.85300       -3.35700       11.99700
C         21.15700       -4.89400       10.72400
O         21.60200       -4.85100        9.59200
N         20.86000       -6.06400       11.23900
H         20.34500       -6.13400       12.10600
H         21.02300       -6.86100       10.65200
C         19.67200       -2.33200       13.35200
O         20.66500       -1.72600       13.73400
N         18.46400       -1.83300       13.58700
H         17.63500       -2.33300       13.29600
H         18.40000       -0.96300       14.08700
