102
-2 1
H        -22.10800       10.38500      -29.29900
C        -21.77600        9.92700      -28.36900
H        -22.01100        8.86400      -28.39600
H        -22.26200       10.40200      -27.51900
C        -20.28100       10.10200      -28.25500
O        -19.82100       10.89800      -27.44100
N        -19.53100        9.34700      -29.05500
H        -20.03900        8.77900      -29.73300
C        -18.06000        9.40200      -29.12300
H        -17.75900       10.44700      -29.04200
C        -17.45600        8.64300      -27.92400
H        -16.38200        8.83300      -27.89700
H        -17.88400        9.03000      -26.99900
C        -17.67300        7.12500      -27.97100
H        -18.73700        6.91600      -28.08400
H        -17.15000        6.72500      -28.83900
S        -17.06800        6.24200      -26.50800
C        -17.33500        4.54300      -27.08400
H        -16.74700        4.36000      -27.98400
H        -17.03100        3.83700      -26.31200
H        -18.38900        4.38800      -27.31600
C        -17.46500        8.87000      -30.44100
O        -16.37600        9.29100      -30.82400
N        -18.15300        7.96000      -31.13600
H        -19.07500        7.69200      -30.79700
C        -17.70200        7.31900      -32.37800
H        -16.61200        7.34100      -32.42200
C        -18.15600        5.85400      -32.33800
H        -19.24200        5.83400      -32.23900
H        -17.91000        5.37800      -33.28700
S        -17.45200        4.85200      -31.00000
C        -18.22700        8.00400      -33.65900
O        -17.96300        7.53700      -34.76600
N        -19.02100        9.06800      -33.51900
H        -19.19900        9.38600      -32.57300
C        -19.94600        9.57200      -34.54500
H        -19.57600        9.28000      -35.52800
C        -21.36800        8.96400      -34.36900
H        -22.09200        9.77700      -34.29000
H        -21.61200        8.43700      -35.29300
C        -21.64500        7.98900      -33.19900
H        -22.71000        7.74500      -33.20200
H        -21.10000        7.06200      -33.39400
C        -21.25900        8.51600      -31.80400
O        -21.12200        9.74700      -31.63100
O        -20.95200        7.69400      -30.91100
C        -20.02700       11.10900      -34.55400
O        -19.97600       11.73900      -35.60600
N        -20.13400       11.74400      -33.39400
H        -20.17800       12.74700      -33.38900
H        -20.29500       11.19900      -32.55100
H        -19.86400        3.92700      -29.38100
C        -20.65400        3.87500      -30.12900
H        -20.77300        4.84700      -30.60700
H        -21.58500        3.58100      -29.65100
C        -20.27700        2.84200      -31.16400
O        -20.21400        3.15000      -32.34900
N        -20.03900        1.61400      -30.70900
H        -19.96000        1.52200      -29.69600
C        -19.57200        0.43200      -31.44900
H        -19.52700       -0.35000      -30.69100
C        -20.62500       -0.04900      -32.47000
H        -20.66400       -1.13800      -32.43700
H        -21.60600        0.31600      -32.16800
C        -20.34800        0.35600      -33.92800
H        -19.89500        1.34600      -33.95700
H        -19.62500       -0.34500      -34.34400
S        -21.81100        0.38400      -35.00200
C        -22.54000        1.95200      -34.44700
H        -22.78600        1.89400      -33.38700
H        -21.82300        2.76100      -34.59800
H        -23.44400        2.15800      -35.01800
C        -18.13600        0.49300      -32.00300
O        -17.60000       -0.55100      -32.37500
N        -17.47900        1.65800      -32.03400
H        -17.94400        2.47700      -31.66200
C        -16.06300        1.75900      -32.41800
H        -15.91300        1.11000      -33.28200
C        -15.72700        3.18600      -32.87200
H        -14.77300        3.13400      -33.39600
H        -16.47700        3.51200      -33.59300
S        -15.55000        4.46500      -31.59600
C        -15.10500        1.24700      -31.32300
O        -13.97400        0.86800      -31.62200
N        -15.57100        1.16900      -30.07500
H        -16.48100        1.59000      -29.88200
C        -14.92600        0.46600      -28.96100
H        -13.86800        0.72900      -28.96800
C        -15.52400        0.96100      -27.62400
H        -14.86400        0.61500      -26.82800
H        -15.48900        2.05100      -27.60200
C        -16.95200        0.48900      -27.26700
H        -16.97300       -0.60200      -27.26200
H        -17.16000        0.81600      -26.24500
C        -18.07500        1.02100      -28.17500
O        -17.87700        2.05100      -28.85500
O        -19.15400        0.39300      -28.22000
C        -14.99400       -1.07300      -29.07300
O        -14.33200       -1.78400      -28.32200
N        -15.77300       -1.62800      -29.99600
H        -16.30600       -1.04500      -30.62700
H        -15.81000       -2.62900      -30.05500
