82
-2 1
H         21.79400       44.01500       73.36400
C         21.48200       44.75300       74.10000
H         22.35500       45.15900       74.60900
H         20.81500       44.28700       74.82300
C         20.75800       45.87400       73.40000
O         21.21500       47.00800       73.41800
N         19.62100       45.55000       72.79500
H         19.26500       44.61000       72.90700
C         18.72600       46.49000       72.09600
H         19.33000       47.20300       71.53400
C         17.85500       45.69500       71.10300
H         17.24500       46.39500       70.53100
H         18.51300       45.18200       70.39900
C         16.93100       44.65300       71.75500
O         17.01200       44.44800       72.99100
O         16.12100       44.05400       71.02200
C         17.81900       47.30800       73.04300
O         17.10200       48.20200       72.59600
N         17.83200       46.98300       74.34000
H         18.42000       46.20300       74.58300
C         16.91900       47.49200       75.36800
H         17.17700       46.97200       76.29000
C         17.16900       48.98900       75.62100
H         16.77600       49.53900       74.76500
H         16.59000       49.29400       76.49300
S         18.89000       49.51900       75.86600
C         15.42500       47.16800       75.12100
O         14.56000       47.84300       75.68000
N         15.10800       46.14500       74.31400
H         15.86600       45.61500       73.88800
C         13.74000       45.82300       73.88800
H         13.03300       46.26000       74.59500
C         13.51100       46.48400       72.52300
H         12.48400       46.31100       72.19900
H         13.68800       47.55800       72.59600
H         14.19500       46.05900       71.78600
C         13.42200       44.31300       73.83400
O         12.28400       43.91300       74.07000
N         14.38500       43.44500       73.56100
H         14.15600       42.47000       73.49800
H         15.30700       43.77300       73.28400
H         25.82200       48.82000       76.11300
C         25.46400       49.31000       77.01600
H         24.69900       50.04200       76.76600
H         26.28900       49.80500       77.52600
C         24.87000       48.27500       77.93900
O         24.80300       47.10100       77.59100
N         24.41700       48.71900       79.10600
H         24.56800       49.70100       79.34100
C         23.94500       47.88500       80.22300
H         24.77900       47.26600       80.55300
C         23.53800       48.78700       81.40600
H         22.58700       49.26700       81.16500
H         23.37700       48.16000       82.28400
C         24.55400       49.89100       81.73900
O         25.12300       49.83700       82.85000
O         24.75400       50.77800       80.87400
C         22.78800       46.93500       79.85800
O         22.62500       45.88300       80.47600
N         22.02600       47.25000       78.80400
H         22.21800       48.12500       78.34200
C         20.99000       46.38000       78.23700
H         20.26300       46.15700       79.01900
C         20.27700       47.13600       77.11000
H         21.00100       47.37000       76.32600
H         19.52100       46.48100       76.67800
S         19.47000       48.67500       77.62500
C         21.52500       45.03000       77.71500
O         20.73900       44.10600       77.51700
N         22.83900       44.89300       77.49300
H         23.43900       45.69800       77.64100
C         23.48800       43.62000       77.17100
H         22.86600       43.08600       76.45100
C         24.83400       43.93200       76.50500
H         24.68000       44.57200       75.63600
H         25.49000       44.44000       77.21300
H         25.30700       43.00300       76.18300
C         23.66600       42.68400       78.39100
O         24.07300       41.53500       78.23900
N         23.39200       43.13200       79.61100
H         23.51100       42.50900       80.39000
H         23.06900       44.08200       79.74900
