82
-2 1
H         17.86100       52.75900       78.71700
C         18.11200       53.36800       79.58300
H         18.69200       54.23300       79.27200
H         18.68000       52.78300       80.30300
C         16.84200       53.84400       80.24700
O         16.73400       55.02200       80.56800
N         15.89500       52.93100       80.44700
H         16.06000       51.98400       80.12800
C         14.62800       53.18400       81.14400
H         14.79400       53.97000       81.88300
C         13.56900       53.69600       80.14300
H         13.95800       54.57800       79.63100
H         13.38700       52.92200       79.39500
C         12.24100       54.07600       80.81400
O         12.26600       54.53900       81.98000
O         11.17500       53.80600       80.22400
C         14.12100       51.93700       81.90400
O         14.47300       50.80100       81.58700
N         13.25100       52.16500       82.88900
H         12.98400       53.13900       83.00900
C         12.47900       51.15800       83.62000
H         12.49300       50.22400       83.05800
C         13.15800       50.91100       84.97600
H         13.41800       51.87400       85.41500
H         12.44700       50.42200       85.64300
S         14.64100       49.87200       84.92300
C         10.98700       51.53500       83.79800
O         10.24400       50.76600       84.40800
N         10.53000       52.69600       83.30700
H         11.16400       53.30300       82.78900
C          9.13400       53.13500       83.38900
H          8.69700       52.76500       84.31800
C          9.12800       54.66800       83.43400
H          9.55800       55.06600       82.51200
H          8.10500       55.02800       83.53700
H          9.72000       55.01600       84.28000
C          8.25800       52.61200       82.23200
O          7.07200       52.34600       82.41700
N          8.80100       52.45000       81.03300
H          8.22900       52.11400       80.28100
H          9.74700       52.78200       80.85600
H         16.78900       47.52900       80.10600
C         16.11000       48.36500       79.96200
H         15.42600       48.44200       80.80500
H         15.53700       48.22600       79.04800
C         16.89900       49.65300       79.85300
O         16.80300       50.34200       78.84600
N         17.69700       50.03300       80.84400
H         18.14600       50.92800       80.73300
C         17.93800       49.36600       82.13000
H         17.04300       48.82000       82.43200
C         19.10100       48.36200       81.97300
H         18.89300       47.71000       81.12300
H         20.01100       48.91900       81.74300
C         19.36800       47.46500       83.19200
O         18.54000       47.42500       84.13400
O         20.43200       46.81600       83.20800
C         18.23300       50.41200       83.22500
O         18.69300       51.52000       82.94400
N         17.98700       50.03800       84.47700
H         17.67900       49.07700       84.59200
C         18.23200       50.81800       85.68800
H         18.96300       51.59500       85.46000
C         16.91900       51.49700       86.10300
H         17.14000       52.17100       86.93100
H         16.54600       52.09600       85.27100
S         15.61500       50.35300       86.64600
C         18.81000       49.98000       86.85200
O         19.05700       50.53800       87.92300
N         19.01100       48.66400       86.68200
H         18.81800       48.25600       85.76900
C         19.37100       47.74600       87.77100
H         19.92300       48.30000       88.53100
C         18.06500       47.24300       88.40300
H         17.48700       46.68600       87.66300
H         18.29300       46.59000       89.24600
H         17.47500       48.08900       88.75900
C         20.27400       46.56000       87.36300
O         20.87100       45.92100       88.22600
N         20.41600       46.23700       86.08500
H         21.02900       45.48300       85.83400
H         19.91600       46.72800       85.34900
