96
-1 1
H         46.23700       -4.59700       27.51600
C         45.51200       -4.70600       28.32000
H         44.50600       -4.73600       27.90500
H         45.60100       -3.87500       29.01800
C         45.78000       -5.99800       29.05500
O         46.06500       -5.98100       30.24600
N         45.68500       -7.10900       28.32900
H         45.41400       -6.99900       27.35600
C         45.82500       -8.48700       28.83400
H         46.24200       -8.45700       29.84100
C         44.44200       -9.16700       28.91400
H         44.02200       -9.19300       27.91100
C         44.52300      -10.60700       29.44300
H         44.96500      -10.61200       30.43900
H         43.52200      -11.03700       29.48800
H         45.12700      -11.22500       28.78000
C         43.46600       -8.40100       29.81800
H         42.51600       -8.93300       29.86900
H         43.88400       -8.30000       30.82000
H         43.27100       -7.41200       29.40800
C         46.79600       -9.31100       27.97700
O         47.58600      -10.07500       28.52700
N         46.79700       -9.13800       26.64700
H         46.11000       -8.50200       26.25200
C         47.84200       -9.68700       25.77000
H         48.77700       -9.65200       26.33100
C         47.56800      -11.17000       25.46500
H         48.49600      -11.60100       25.08800
H         47.33600      -11.68300       26.39900
S         46.27400      -11.55200       24.25100
C         48.11600       -8.89800       24.47300
O         49.19700       -9.06200       23.91000
N         47.20800       -8.03200       23.99800
H         46.30600       -7.96500       24.46600
C         47.41900       -7.21800       22.77600
H         48.49200       -7.14600       22.59800
C         46.81600       -7.87700       21.52100
H         47.05200       -7.24200       20.66700
C         47.38600       -9.25900       21.21000
H         47.10600       -9.96800       21.98500
H         47.00000       -9.60200       20.25200
H         48.47300       -9.20100       21.15400
O         45.41200       -7.99400       21.58400
H         45.13600       -8.16000       22.51300
C         46.94500       -5.76100       22.86900
O         47.24000       -4.95900       21.99100
N         46.25700       -5.35300       23.92700
H         45.98800       -6.01400       24.64600
H         45.96500       -4.39200       23.96400
H         43.02100       -6.83600       21.81300
C         42.10600       -7.18000       21.33500
H         42.18700       -7.03600       20.26000
H         41.25700       -6.61900       21.72200
C         41.90800       -8.64900       21.62400
O         40.85900       -9.03400       22.12800
N         42.91700       -9.46100       21.31000
H         43.78300       -9.01600       21.02500
C         42.88300      -10.93900       21.34700
H         42.09700      -11.28100       20.67400
C         44.22900      -11.50500       20.84300
H         45.02900      -11.11200       21.46800
C         44.30300      -13.03700       20.88600
H         45.24600      -13.37800       20.45800
H         44.26100      -13.38600       21.91800
H         43.47200      -13.46800       20.32800
C         44.49700      -11.07700       19.39100
H         45.44500      -11.49400       19.05200
H         43.69500      -11.43200       18.74300
H         44.56400       -9.99200       19.32100
C         42.54400      -11.50700       22.73200
O         41.85200      -12.51900       22.82000
N         42.97600      -10.84000       23.80300
H         43.54500      -10.00900       23.65200
C         42.58900      -11.13100       25.18900
H         41.89600      -11.97300       25.20500
C         43.83500      -11.51100       26.00300
H         44.40900      -10.60500       26.19200
H         43.49700      -11.89700       26.96500
S         44.95800      -12.72500       25.27100
C         41.87700       -9.93200       25.84600
O         41.67400       -9.91700       27.05800
N         41.58400       -8.89000       25.06400
H         41.70000       -9.02600       24.06800
C         41.50000       -7.50200       25.53400
H         41.53800       -7.49700       26.62400
C         42.71500       -6.69700       25.02000
H         42.46800       -6.28800       24.04000
H         42.86900       -5.84600       25.68600
C         44.03400       -7.47100       24.87500
O         44.97200       -7.22100       25.66100
O         44.21100       -8.25900       23.91800
C         40.19000       -6.79700       25.13100
O         39.85500       -5.74400       25.66200
N         39.42500       -7.34100       24.19200
H         39.72700       -8.18500       23.72300
H         38.57000       -6.87700       23.94100
