96
-1 1
H         42.10800      -10.13200       19.68900
C         42.82000      -10.90000       19.39500
H         43.82700      -10.48600       19.41400
H         42.58600      -11.26600       18.39800
C         42.73800      -12.04500       20.37600
O         42.37100      -13.15200       19.99800
N         43.08300      -11.76400       21.63000
H         43.37500      -10.80800       21.81100
C         43.10200      -12.72600       22.75200
H         42.47300      -13.57800       22.49100
C         44.53300      -13.25800       23.00500
H         45.15100      -12.43600       23.36500
C         44.56000      -14.37500       24.05800
H         43.93000      -15.20500       23.73600
H         45.58100      -14.72800       24.20100
H         44.19700      -14.00400       25.01600
C         45.19600      -13.82300       21.73900
H         45.34500      -13.02900       21.00800
H         46.17200      -14.24100       21.98200
H         44.56500      -14.59800       21.30400
C         42.51800      -12.12600       24.04100
O         41.85500      -12.83800       24.79100
N         42.70600      -10.82200       24.27900
H         43.23300      -10.28800       23.59900
C         42.19000      -10.10800       25.45600
H         41.41500      -10.71200       25.93100
C         43.31700       -9.90100       26.47900
H         44.10100       -9.28500       26.03400
H         42.88700       -9.35000       27.31100
S         44.06300      -11.38600       27.19500
C         41.54400       -8.74500       25.13300
O         40.69700       -8.28300       25.89500
N         41.92900       -8.10100       24.02800
H         42.68400       -8.51200       23.48600
C         41.53000       -6.72900       23.65800
H         40.69900       -6.41100       24.28700
C         42.69900       -5.73700       23.84600
H         43.30100       -5.72100       22.93600
C         42.20800       -4.31900       24.13200
H         43.06600       -3.65700       24.25400
H         41.60100       -3.96100       23.30200
H         41.61400       -4.31200       25.04600
O         43.55400       -6.09400       24.90700
H         44.08800       -6.84200       24.54400
C         41.06700       -6.63900       22.20000
O         40.23500       -5.80700       21.85800
N         41.57200       -7.48600       21.31100
H         42.29600       -8.14100       21.59000
H         41.26200       -7.42400       20.35700
H         42.37500       -6.94800       27.37200
C         42.79000       -6.94700       28.37900
H         42.37400       -7.77400       28.95200
H         42.54300       -6.00600       28.86300
C         44.29200       -7.08500       28.31000
O         44.87600       -7.87100       29.04600
N         44.91200       -6.28800       27.44400
H         44.31500       -5.81000       26.77600
C         46.36200       -6.01000       27.34700
H         46.47000       -5.27800       26.54700
C         46.86900       -5.31000       28.63700
H         46.74400       -5.98500       29.48300
C         48.34900       -4.90300       28.58700
H         48.61600       -4.34200       29.48200
H         48.98000       -5.79000       28.55000
H         48.53900       -4.29100       27.70500
C         46.07200       -4.02600       28.92500
H         45.02200       -4.26100       29.09700
H         46.45600       -3.54300       29.82400
H         46.15400       -3.33800       28.08400
C         47.26000       -7.18100       26.91000
O         48.31800       -6.92100       26.34100
N         46.87200       -8.45100       27.08600
H         46.01500       -8.61500       27.60000
C         47.73200       -9.60000       26.74600
H         48.66800       -9.47200       27.29000
C         47.09000      -10.90800       27.23100
H         47.89000      -11.64600       27.29700
H         46.69300      -10.76900       28.23700
S         45.80300      -11.63800       26.17500
C         48.10800       -9.70800       25.25100
O         49.10300      -10.34200       24.90800
N         47.32100       -9.08400       24.37600
H         46.49800       -8.61400       24.73800
C         47.49200       -8.97900       22.92500
H         48.28100       -9.66300       22.61100
C         46.18600       -9.41900       22.23400
H         46.25900       -9.23500       21.16100
H         46.09700      -10.49900       22.36100
C         44.89100       -8.78500       22.76600
O         43.81700       -9.13800       22.23000
O         44.88000       -8.03500       23.77100
C         47.93300       -7.57100       22.46700
O         47.98300       -7.27700       21.27700
N         48.26800       -6.66600       23.37900
H         48.55200       -5.75400       23.06700
H         48.25900       -6.91100       24.36000
