80
0 1
H         -0.24400       60.62500      -10.94800
C          0.09600       61.58600      -10.56400
H         -0.60900       62.36500      -10.84900
H          1.08400       61.81300      -10.95700
C          0.16000       61.51400       -9.05700
O         -0.14400       60.48200       -8.47500
N          0.56100       62.61600       -8.43000
H          0.76600       63.43100       -8.99000
C          0.54500       62.80500       -6.97500
H         -0.34500       62.32500       -6.56700
C          1.77700       62.16900       -6.31600
H          1.78400       61.10000       -6.53500
H          2.68500       62.61600       -6.72300
O          1.75100       62.34800       -4.90800
H          2.06600       63.23700       -4.66800
C          0.50200       64.29100       -6.63800
O          1.04600       65.11500       -7.37400
N         -0.11500       64.64000       -5.51000
H         -0.51600       63.90400       -4.94900
C          0.06400       65.95000       -4.88600
H          0.01200       66.72500       -5.64800
C         -1.07600       66.19100       -3.89000
H         -1.00800       65.44200       -3.09900
H         -0.93600       67.17000       -3.42800
S         -2.75800       66.14000       -4.57100
C          1.44100       66.04500       -4.19300
O          2.10900       65.02800       -3.98400
N          1.83800       67.25300       -3.79000
H          1.28100       68.05600       -4.05600
C          2.99300       67.52300       -2.93100
H          3.18300       66.64800       -2.30700
C          4.22900       67.76400       -3.80800
H          4.45200       66.86600       -4.38300
H          4.04500       68.59700       -4.48800
H          5.09200       67.99700       -3.18300
C          2.71200       68.71000       -1.98900
O          1.76400       69.46500       -2.17600
N          3.52700       68.89700       -0.95900
H          3.34200       69.67400       -0.34600
H          4.30600       68.27900       -0.80700
H          4.25900       67.88500       -7.13000
C          3.43000       67.19600       -7.27500
H          3.27800       66.59100       -6.38500
H          3.64000       66.53100       -8.11100
C          2.17000       67.98600       -7.54300
O          1.51800       68.44600       -6.61400
N          1.82100       68.12600       -8.81800
H          2.39600       67.68000       -9.51900
C          0.67100       68.88300       -9.34100
H          0.63900       69.84600       -8.83100
C          0.92300       69.14900      -10.83400
H          0.02800       69.54800      -11.31400
H          1.71300       69.89500      -10.91900
O          1.35500       67.97400      -11.50300
H          0.58400       67.41100      -11.72400
C         -0.70900       68.23400       -9.11900
O         -1.69200       68.68600       -9.70700
N         -0.80600       67.18400       -8.29500
H          0.05300       66.88300       -7.85000
C         -1.96800       66.30100       -8.11500
H         -1.68300       65.53400       -7.40200
C         -3.14900       67.04200       -7.46900
H         -3.46000       67.85300       -8.12900
H         -3.98700       66.34900       -7.38900
S         -2.86200       67.74900       -5.82100
C         -2.34700       65.53400       -9.39400
O         -2.18400       64.31700       -9.45100
N         -2.79900       66.23400      -10.43600
H         -2.80300       67.24400      -10.34200
C         -2.91200       65.68400      -11.78300
H         -3.40000       64.71000      -11.72500
C         -3.79200       66.62000      -12.62200
H         -4.77300       66.72000      -12.15700
H         -3.32500       67.60400      -12.69200
H         -3.91500       66.21100      -13.62500
C         -1.51900       65.49000      -12.41500
O         -0.58300       66.24100      -12.14700
N         -1.36200       64.50300      -13.28800
H         -0.45700       64.38200      -13.71100
H         -2.13000       63.89000      -13.50400
