80
0 1
H         -4.82600       60.66700      -11.08100
C         -3.94700       61.25700      -11.33100
H         -3.08700       60.59900      -11.45400
H         -3.74400       61.97600      -10.53900
C         -4.19000       61.99300      -12.62600
O         -3.46400       61.80400      -13.59200
N         -5.19800       62.86100      -12.64600
H         -5.72900       63.00200      -11.79900
C         -5.62000       63.65800      -13.81200
H         -5.63800       62.99900      -14.68000
C         -7.05400       64.14900      -13.56800
H         -7.39500       64.75700      -14.40700
H         -7.71100       63.28300      -13.48200
O         -7.12800       64.89500      -12.36700
H         -7.06800       65.84600      -12.59500
C         -4.67300       64.82200      -14.17100
O         -5.11000       65.82400      -14.73700
N         -3.38400       64.73200      -13.83100
H         -3.04900       63.85000      -13.45900
C         -2.41000       65.79900      -14.04800
H         -2.63100       66.27600      -14.99600
C         -2.56000       66.82700      -12.91800
H         -3.61000       67.10900      -12.82700
H         -2.26600       66.34600      -11.98500
S         -1.58600       68.34300      -13.09400
C         -0.97100       65.27400      -14.13900
O         -0.50400       64.57500      -13.24200
N         -0.25700       65.65300      -15.20200
H         -0.72500       66.21200      -15.90900
C          1.13600       65.28400      -15.47200
H          1.25400       64.22700      -15.23000
C          1.38000       65.44800      -16.98000
H          1.29700       66.50000      -17.25400
H          2.38100       65.09400      -17.23000
H          0.64800       64.86700      -17.54100
C          2.16400       66.05100      -14.60000
O          3.16600       66.56300      -15.08900
N          1.92500       66.18100      -13.30200
H          1.11200       65.73200      -12.90200
H          2.58400       66.69100      -12.73900
H         -4.68900       70.42700      -21.10900
C         -4.75900       69.46900      -21.62100
H         -4.24100       69.51700      -22.57700
H         -5.80700       69.22200      -21.78600
C         -4.13300       68.39600      -20.76400
O         -4.80400       67.45800      -20.35800
N         -2.84500       68.54200      -20.46300
H         -2.35700       69.36000      -20.79700
C         -2.06700       67.60600      -19.63100
H         -2.29900       66.59000      -19.95000
C         -0.57400       67.85100      -19.87200
H          0.01400       67.18400      -19.24000
H         -0.33700       67.63800      -20.91600
O         -0.24700       69.19900      -19.58400
H          0.70600       69.26600      -19.46200
C         -2.37800       67.67600      -18.12400
O         -1.73000       66.98600      -17.33300
N         -3.34000       68.50300      -17.70300
H         -3.86900       69.01100      -18.39600
C         -3.74100       68.65800      -16.30900
H         -3.69800       67.68900      -15.82900
C         -2.75100       69.60400      -15.61700
H         -1.73200       69.29000      -15.84600
H         -2.89100       70.60200      -16.03500
S         -2.90500       69.72400      -13.81700
C         -5.18500       69.16100      -16.18300
O         -5.55900       70.14100      -16.82700
N         -5.98400       68.50300      -15.34000
H         -5.62200       67.66600      -14.89100
C         -7.37600       68.84300      -15.05900
H         -7.49700       69.92500      -15.13700
C         -8.26800       68.17500      -16.11500
H         -7.98300       68.51800      -17.11000
H         -8.15400       67.09100      -16.06500
H         -9.31300       68.43500      -15.93900
C         -7.78000       68.42000      -13.63300
O         -7.21800       67.49800      -13.04700
N         -8.78400       69.06700      -13.05600
H         -9.05800       68.79100      -12.12800
H         -9.25000       69.81700      -13.54100
