80
0 1
H         11.94800       60.96900       -6.79600
C         11.63400       61.50100       -5.90000
H         11.30900       62.50600       -6.16300
H         12.46800       61.56100       -5.20100
C         10.49400       60.75800       -5.24700
O         10.60300       60.33700       -4.09900
N          9.39100       60.59000       -5.97500
H          9.38400       60.91200       -6.93300
C          8.22100       59.83100       -5.51400
H          8.58200       58.97000       -4.95100
C          7.36100       60.68600       -4.57300
H          7.99700       61.31000       -3.94200
H          6.69800       61.33000       -5.15400
O          6.60600       59.82400       -3.74300
H          7.20100       59.54500       -3.02300
C          7.38600       59.26800       -6.67100
O          7.73700       59.43200       -7.83700
N          6.29600       58.57900       -6.33400
H          6.05700       58.58500       -5.35000
C          5.45000       57.76400       -7.21100
H          6.10100       57.15600       -7.84200
C          4.64500       56.81700       -6.30800
H          3.93500       57.41200       -5.73200
H          4.06700       56.13400       -6.93400
S          5.64700       55.83900       -5.15300
C          4.54300       58.58100       -8.16000
O          3.33000       58.38200       -8.19600
N          5.11300       59.53100       -8.90400
H          6.11900       59.63100       -8.85000
C          4.40100       60.28900       -9.93000
H          3.46200       60.64700       -9.50400
C          5.24900       61.50700      -10.31600
H          5.44400       62.11900       -9.43500
H          6.19700       61.17700      -10.74400
H          4.71600       62.10800      -11.05500
C          4.06500       59.41300      -11.15400
O          4.85100       58.57000      -11.57400
N          2.91200       59.62500      -11.77500
H          2.26200       60.30700      -11.42300
H          2.69500       59.05100      -12.57400
H         10.11800       54.54200       -4.93300
C          9.03900       54.63700       -4.83200
H          8.56800       53.67800       -5.04800
H          8.66600       55.38700       -5.52700
C          8.70400       55.03700       -3.41500
O          8.11200       54.26300       -2.67500
N          9.06000       56.26400       -3.03500
H          9.51800       56.85900       -3.70700
C          8.94400       56.76500       -1.65200
H          9.50400       56.08900       -1.00500
C          9.59500       58.14700       -1.54500
H          9.52900       58.50800       -0.51700
H         10.64800       58.06900       -1.82100
O          8.95200       59.06100       -2.41100
H          9.64800       59.59600       -2.85100
C          7.51600       56.81400       -1.08300
O          7.36200       56.93600        0.12900
N          6.47200       56.65000       -1.90600
H          6.65400       56.49100       -2.88400
C          5.09900       56.46100       -1.42400
H          4.85500       57.29000       -0.75800
C          4.12400       56.50400       -2.60800
H          3.11500       56.45700       -2.19600
H          4.22300       57.45900       -3.12300
S          4.28000       55.15500       -3.81400
C          4.90800       55.16400       -0.60900
O          3.94700       55.06900        0.14900
N          5.81900       54.18900       -0.72200
H          6.56700       54.29600       -1.39800
C          5.85200       52.99500        0.12600
H          4.83500       52.61200        0.22400
C          6.69600       51.93400       -0.59300
H          7.72800       52.27600       -0.68500
H          6.68000       51.00400       -0.02200
H          6.28800       51.74500       -1.58700
C          6.37000       53.25600        1.56200
O          6.40300       52.34900        2.38600
N          6.80500       54.46600        1.90000
H          7.12500       54.60900        2.84300
H          6.78500       55.22500        1.23400
