80
0 1
H          0.56100       55.25400      -23.68200
C          1.39100       55.13600      -22.98700
H          1.56800       56.07700      -22.46800
H          2.28800       54.84500      -23.53100
C          1.04700       54.06900      -21.97600
O          1.00400       54.34400      -20.78300
N          0.82200       52.84500      -22.44800
H          0.90200       52.69200      -23.44300
C          0.44900       51.67300      -21.63800
H         -0.28800       51.99300      -20.90200
C         -0.23100       50.63800      -22.54300
H         -0.58400       49.79700      -21.94300
H         -1.08900       51.09900      -23.03600
O          0.68000       50.17800      -23.52100
H          1.30900       49.60400      -23.06300
C          1.63000       51.06200      -20.85400
O          1.85100       49.85100      -20.88100
N          2.44100       51.89400      -20.19700
H          2.17800       52.87200      -20.17100
C          3.53800       51.44900      -19.33600
H          4.09000       50.66900      -19.86300
C          4.50500       52.62300      -19.10700
H          5.27800       52.30700      -18.40500
H          4.99700       52.85300      -20.05300
S          3.75700       54.15800      -18.48900
C          3.00800       50.83500      -18.02400
O          2.07500       51.35500      -17.40900
N          3.60700       49.72800      -17.57800
H          4.37200       49.34100      -18.10700
C          3.28000       49.09300      -16.30000
H          2.19600       49.10700      -16.17000
C          3.73300       47.62800      -16.34800
H          3.25000       47.11700      -17.18100
H          4.81700       47.57700      -16.47000
H          3.45800       47.12700      -15.41900
C          3.91400       49.84600      -15.11400
O          5.03700       50.33100      -15.20300
N          3.22400       49.94000      -13.98500
H          2.29900       49.54900      -13.91700
H          3.64500       50.42800      -13.21100
H          1.65400       58.02100      -18.77500
C          1.31400       57.03000      -19.07000
H          2.14300       56.46700      -19.49100
H          0.52000       57.11700      -19.81000
C          0.78300       56.30700      -17.85500
O          0.88000       56.81900      -16.74700
N          0.23500       55.10700      -18.04300
H          0.25800       54.70900      -18.97700
C         -0.43500       54.33700      -16.97600
H         -1.23500       54.95600      -16.56800
C         -1.08400       53.07800      -17.56500
H         -1.44500       52.43800      -16.75800
H         -1.94000       53.38100      -18.16900
O         -0.19600       52.35000      -18.39300
H          0.53800       51.98400      -17.86100
C          0.46700       53.96700      -15.79000
O         -0.03100       53.73400      -14.69100
N          1.78700       53.96800      -15.97400
H          2.13100       54.16500      -16.90000
C          2.77500       53.76500      -14.91500
H          2.47200       52.89400      -14.33300
C          4.13200       53.44200      -15.55400
H          4.86700       53.35100      -14.75200
H          4.06100       52.46900      -16.03200
S          4.78200       54.60800      -16.78200
C          2.87200       54.93600      -13.91700
O          3.44400       54.75600      -12.84600
N          2.28500       56.10100      -14.21700
H          1.84600       56.21300      -15.12400
C          2.10500       57.18900      -13.25000
H          3.01700       57.28400      -12.66000
C          1.90400       58.49400      -14.03200
H          1.85800       59.33200      -13.33500
H          2.73800       58.64900      -14.71700
H          0.97300       58.45200      -14.59700
C          0.94800       56.94400      -12.25100
O          0.75400       57.71800      -11.32100
N          0.14800       55.89400      -12.41300
H         -0.59300       55.75500      -11.74700
H          0.29100       55.25000      -13.17800
