109
1 1
H        -12.83800      -43.40800       38.23700
C        -12.73900      -42.54300       38.89100
H        -12.18000      -42.82400       39.78300
H        -13.72700      -42.18700       39.17900
C        -12.00500      -41.44400       38.16500
O        -10.97500      -40.96400       38.63500
N        -12.52600      -41.03100       37.01000
H        -13.33900      -41.51400       36.64800
C        -11.90700      -39.99500       36.17900
H        -10.87900      -40.29500       35.96900
C        -12.65900      -39.89600       34.84400
H        -13.70600      -39.64400       35.01700
H        -12.21600      -39.11300       34.23000
C        -12.60000      -41.20400       34.08700
O        -13.47100      -42.04400       34.20400
N        -11.54300      -41.43700       33.34800
H        -11.52000      -42.31300       32.85900
H        -10.78800      -40.76300       33.33600
C        -11.83800      -38.63600       36.89000
O        -10.75800      -38.05900       36.99200
N        -12.96000      -38.16800       37.43400
H        -13.78300      -38.75100       37.38500
C        -13.09700      -36.93900       38.22200
H        -12.12400      -36.46600       38.34400
C        -14.02300      -35.96800       37.47000
H        -15.04700      -36.32000       37.60600
H        -13.95600      -34.98300       37.93400
S        -13.77400      -35.77800       35.67700
C        -13.69100      -37.30500       39.60500
O        -14.40400      -38.30900       39.67600
N        -13.46900      -36.53500       40.69100
C        -14.06700      -36.84200       41.98500
H        -13.93600      -37.89400       42.24400
H        -15.13000      -36.59700       41.95700
C        -13.35800      -35.95600       43.00500
H        -12.45800      -36.45600       43.36800
H        -14.01400      -35.68700       43.83400
C        -12.97600      -34.74300       42.16200
H        -12.16800      -34.17300       42.62100
H        -13.85200      -34.10500       42.03300
C        -12.59500      -35.36300       40.80800
H        -12.82000      -34.64300       40.02300
C        -11.09700      -35.73000       40.73300
O        -10.72500      -36.87000       40.46200
N        -10.20500      -34.77400       40.94800
H        -10.51600      -33.83800       41.14400
H         -9.22800      -34.97000       40.77900
H         -5.29000      -32.70500       38.86600
C         -5.77100      -33.56800       38.40800
H         -5.31100      -34.48000       38.78500
H         -5.65700      -33.52400       37.32600
C         -7.24000      -33.57200       38.75500
O         -7.73900      -34.54900       39.30500
N         -7.93400      -32.48400       38.41400
H         -7.44400      -31.73400       37.95400
C         -9.38500      -32.33100       38.61800
H         -9.59900      -32.46400       39.67800
C         -9.80900      -30.90500       38.22800
H        -10.84800      -30.76200       38.53000
H         -9.21200      -30.18900       38.79500
C         -9.69100      -30.59000       36.74600
C         -8.49500      -30.05400       36.22700
H         -7.66900      -29.81700       36.88200
C         -8.37800      -29.80400       34.84600
H         -7.47000      -29.39100       34.43300
C         -9.45900      -30.07800       33.98200
O         -9.33600      -29.83000       32.65300
H        -10.17400      -29.88700       32.19100
C        -10.66100      -30.60200       34.50400
H        -11.49300      -30.80800       33.84700
C        -10.77400      -30.85400       35.88400
H        -11.69700      -31.25700       36.28100
C        -10.20600      -33.38000       37.84300
O        -11.26500      -33.80200       38.30100
N         -9.67500      -33.83900       36.70900
H         -8.81200      -33.41500       36.40000
C        -10.11900      -34.99000       35.93500
H        -10.61900      -35.69400       36.59600
C        -11.10400      -34.54600       34.84800
H        -10.65600      -33.71100       34.30600
H        -11.24000      -35.36200       34.13700
S        -12.74900      -34.03500       35.41100
C         -8.88600      -35.66700       35.31100
O         -7.88600      -35.00100       35.04000
N         -8.94500      -36.98300       35.08200
H         -9.77300      -37.47700       35.39900
C         -7.86200      -37.78300       34.48600
H         -7.35700      -37.16100       33.74300
C         -6.81100      -38.16100       35.55300
H         -6.09700      -38.84900       35.09700
H         -6.24700      -37.26500       35.81900
C         -7.35100      -38.82000       36.84200
H         -8.29100      -39.33400       36.63900
H         -6.62400      -39.56800       37.16200
C         -7.52700      -37.81500       37.99600
H         -6.58400      -37.28400       38.14300
H         -8.29100      -37.07500       37.75600
C         -7.87800      -38.51400       39.31600
H         -7.22800      -39.38400       39.44100
H         -7.67300      -37.81600       40.13300
N         -9.30100      -38.91700       39.37900
H         -9.59700      -39.49100       38.59500
H         -9.51500      -39.43600       40.21700
H         -9.90200      -38.09500       39.39600
C         -8.38500      -39.01000       33.72900
O         -9.49200      -39.48500       33.96400
N         -7.59500      -39.54600       32.81300
H         -7.92200      -40.35000       32.30400
H         -6.69100      -39.14400       32.62800
