109
1 1
H        -14.94000      -31.92900       41.74500
C        -15.41900      -32.84300       42.08500
H        -16.41300      -32.60300       42.46000
H        -14.82700      -33.29800       42.87700
C        -15.55700      -33.81200       40.93600
O        -15.47100      -35.01700       41.14200
N        -15.77600      -33.28800       39.73400
H        -15.88300      -32.28200       39.67400
C        -16.17300      -34.05400       38.54600
H        -17.01200      -34.69700       38.81900
C        -16.64900      -33.06500       37.45900
H        -15.79200      -32.51400       37.07300
H        -17.07500      -33.63000       36.63000
C        -17.66300      -32.04200       37.94700
O        -17.36100      -31.18000       38.75500
N        -18.88900      -32.10000       37.48600
H        -19.15600      -32.79300       36.81100
H        -19.52400      -31.39600       37.82100
C        -15.08300      -34.97500       37.96200
O        -15.40300      -35.87500       37.19000
N        -13.80500      -34.74600       38.27300
H        -13.59600      -34.05600       38.98000
C        -12.68800      -35.49100       37.68800
H        -12.95900      -35.73200       36.66100
C        -11.48100      -34.54500       37.62300
H        -11.72000      -33.73700       36.93300
H        -11.35100      -34.09400       38.59800
S         -9.87800      -35.23100       37.14100
C        -12.40800      -36.81700       38.44100
O        -12.54100      -36.87200       39.67300
N        -12.01200      -37.89900       37.73600
C        -11.88600      -37.99200       36.28500
H        -11.40500      -37.11800       35.84900
H        -12.87700      -38.12700       35.84700
C        -11.03500      -39.23000       36.02200
H         -9.97700      -38.97800       36.11300
H        -11.24900      -39.67000       35.04800
C        -11.45200      -40.14700       37.16800
H        -10.69700      -40.91000       37.36200
H        -12.40500      -40.61900       36.92200
C        -11.65100      -39.18200       38.34700
H        -12.48400      -39.54000       38.95300
C        -10.40900      -39.10000       39.25500
O         -9.76800      -38.06300       39.41700
N        -10.06600      -40.20600       39.89700
H         -9.26300      -40.17000       40.51500
H        -10.57900      -41.06000       39.76300
H         -9.41000      -33.25500       45.27500
C        -10.47400      -33.13100       45.47300
H        -10.65000      -32.18600       45.98500
H        -10.82300      -33.95300       46.09700
C        -11.22400      -33.14800       44.16400
O        -12.01700      -34.05700       43.91700
N        -10.97400      -32.14500       43.31500
H        -10.31700      -31.43200       43.59100
C        -11.60600      -32.06500       41.99400
H        -12.68500      -32.06600       42.14300
C        -11.24800      -30.76400       41.26300
H        -11.59400      -29.91500       41.85400
H        -10.16500      -30.68400       41.16400
C        -11.88700      -30.69900       39.88700
C        -13.25700      -30.39000       39.76700
H        -13.83300      -30.12000       40.64200
C        -13.88200      -30.42400       38.50600
H        -14.93100      -30.18300       38.40300
C        -13.13400      -30.75200       37.35700
O        -13.74600      -30.79900       36.14600
H        -13.12500      -30.72900       35.42000
C        -11.75600      -31.03700       37.47200
H        -11.17900      -31.28100       36.59200
C        -11.13700      -31.01800       38.73600
H        -10.08400      -31.25300       38.81900
C        -11.27500      -33.30300       41.15300
O        -12.18500      -34.06100       40.82700
N         -9.98700      -33.55400       40.89700
H         -9.31700      -32.87800       41.22800
C         -9.45400      -34.89200       40.61700
H        -10.22000      -35.50200       40.13600
C         -8.25200      -34.79700       39.66800
H         -7.45100      -34.25700       40.17200
H         -7.89300      -35.80800       39.46300
S         -8.56100      -33.98800       38.07300
C         -9.06600      -35.57500       41.94100
O         -8.84800      -34.89200       42.94400
N         -8.99700      -36.91100       41.97300
H         -9.13600      -37.42100       41.10100
C         -8.90900      -37.68900       43.22500
H         -8.30600      -37.11800       43.93400
C        -10.32400      -37.83000       43.82500
H        -10.27000      -38.40200       44.75200
H        -10.66600      -36.82600       44.07900
C        -11.34500      -38.49900       42.87800
H        -11.29200      -38.04800       41.88800
H        -11.09000      -39.55400       42.77500
C        -12.80000      -38.39100       43.36600
H        -13.44700      -38.90500       42.65300
H        -12.88600      -38.90400       44.32600
C        -13.29300      -36.94500       43.53600
H        -14.31500      -36.95900       43.92400
H        -12.67000      -36.44300       44.28200
N        -13.25500      -36.17100       42.27500
H        -12.73500      -36.61700       41.52400
H        -14.18400      -35.99700       41.89700
H        -12.83500      -35.25500       42.41800
C         -8.20800      -39.04100       43.06000
O         -8.24600      -39.65200       42.00200
N         -7.58600      -39.54300       44.11400
H         -7.12200      -40.43000       44.01100
H         -7.56100      -39.03400       44.98100
