109
1 1
H         -4.32500      -40.13200       40.72600
C         -5.20000      -39.90200       40.12000
H         -5.62300      -40.82700       39.73200
H         -4.91500      -39.25600       39.29200
C         -6.23200      -39.20500       40.97400
O         -7.34400      -39.69500       41.11900
N         -5.87600      -38.04300       41.51500
H         -4.96500      -37.67100       41.28800
C         -6.73700      -37.21100       42.36100
H         -7.76800      -37.56100       42.28300
C         -6.28500      -37.36600       43.82400
H         -6.37600      -38.41000       44.12400
H         -5.23500      -37.08100       43.89600
C         -7.09300      -36.52400       44.79700
O         -8.30200      -36.37500       44.68900
N         -6.45300      -35.92700       45.77400
H         -5.45800      -36.03700       45.86900
H         -6.98800      -35.37100       46.41500
C         -6.71100      -35.75200       41.87800
O         -5.67600      -35.26400       41.43500
N         -7.85100      -35.06700       41.95600
H         -8.66300      -35.52500       42.35200
C         -8.09300      -33.77300       41.32100
H         -7.14900      -33.23000       41.25100
C         -8.58000      -34.08800       39.89500
H         -7.72500      -34.42400       39.30600
H         -9.25500      -34.93600       39.95800
S         -9.44400      -32.81400       38.94000
C         -9.08600      -32.92500       42.15600
O         -9.90200      -33.49100       42.89800
N         -9.01700      -31.57800       42.08800
C         -8.01900      -30.79500       41.36600
H         -7.78700      -31.20800       40.38600
H         -7.10900      -30.73300       41.96400
C         -8.62400      -29.40300       41.20900
H         -9.29500      -29.38600       40.34900
H         -7.85600      -28.63400       41.12000
C         -9.42600      -29.26300       42.50000
H        -10.20900      -28.50900       42.40300
H         -8.75200      -28.99800       43.31700
C         -9.98000      -30.67700       42.73300
H        -10.00300      -30.87400       43.80500
C        -11.41300      -30.83300       42.19000
O        -11.68400      -31.57800       41.25200
N        -12.37000      -30.14300       42.79400
H        -13.31700      -30.23800       42.44500
H        -12.15500      -29.51400       43.54800
H         -8.19500      -39.83800       37.89000
C         -8.37800      -38.77400       37.75000
H         -8.51100      -38.56400       36.68900
H         -7.53800      -38.20100       38.13600
C         -9.63400      -38.38100       38.49000
O        -10.55600      -37.83100       37.90100
N         -9.67100      -38.65200       39.79200
H         -8.87600      -39.13300       40.20100
C        -10.80400      -38.34700       40.67000
H        -11.71200      -38.69900       40.17900
C        -10.63900      -39.14200       41.98000
H        -10.67600      -40.20600       41.74300
H         -9.64500      -38.93500       42.37800
C        -11.65000      -38.87300       43.08700
C        -11.23100      -38.94700       44.43200
H        -10.20600      -39.21100       44.66200
C        -12.14900      -38.72200       45.47600
H        -11.84500      -38.81100       46.50900
C        -13.49900      -38.43900       45.17800
O        -14.37800      -38.22200       46.18800
H        -15.27900      -38.42900       45.93200
C        -13.91800      -38.35000       43.83500
H        -14.94700      -38.11900       43.60000
C        -12.99700      -38.56800       42.79500
H        -13.34100      -38.51000       41.77000
C        -10.96900      -36.83300       40.90400
O        -10.56800      -36.30400       41.94400
N        -11.55500      -36.12100       39.94100
H        -11.73100      -36.58300       39.05500
C        -12.05400      -34.75500       40.12600
H        -11.31800      -34.18600       40.69200
C        -12.22000      -34.06500       38.76500
H        -12.95900      -34.61400       38.17900
H        -12.60400      -33.05600       38.93000
S        -10.70400      -33.91700       37.77600
C        -13.35500      -34.73700       40.95000
O        -14.01900      -35.76300       41.11100
N        -13.71000      -33.57300       41.50600
H        -13.12000      -32.76600       41.31000
C        -14.81200      -33.39100       42.46800
H        -15.52100      -34.21400       42.36600
C        -14.23100      -33.40400       43.89500
H        -13.31300      -32.81400       43.91200
H        -14.94300      -32.93700       44.57900
C        -13.95300      -34.82900       44.40100
H        -14.90900      -35.30200       44.63000
H        -13.46700      -35.42100       43.62900
C        -13.07900      -34.84500       45.66500
H        -13.42000      -34.06200       46.34500
H        -13.21300      -35.79700       46.17700
C        -11.58100      -34.65100       45.38100
H        -11.42300      -33.70100       44.86000
H        -11.06100      -34.59900       46.34100
N        -11.01100      -35.75800       44.57700
H        -11.36000      -36.66700       44.84900
H        -11.19800      -35.64100       43.58300
H         -9.99500      -35.78000       44.63500
C        -15.58000      -32.09300       42.20000
O        -14.98800      -31.03700       42.02800
N        -16.90200      -32.14200       42.21500
H        -17.37800      -33.01600       42.35700
H        -17.40800      -31.28800       42.04400
