104
0 1
H         35.74100       51.14700       -1.93500
C         34.67100       51.31800       -1.82600
H         34.38400       52.17500       -2.43100
H         34.45400       51.50600       -0.77700
C         33.93000       50.07800       -2.29700
O         34.58700       49.09500       -2.61400
N         32.58300       50.09500       -2.36400
C         31.81200       49.03000       -2.98600
H         31.48900       48.31900       -2.22400
H         32.38200       48.51600       -3.76200
C         30.60300       49.72700       -3.59900
H         29.75800       49.04700       -3.71700
H         30.88000       50.17400       -4.55500
C         30.31400       50.82400       -2.57700
H         29.70200       50.41000       -1.77400
H         29.80500       51.66900       -3.03900
C         31.69900       51.22400       -2.04100
H         32.04000       52.10700       -2.58000
C         31.60100       51.56200       -0.54500
O         31.13300       52.64400       -0.19700
N         32.00500       50.64400        0.33600
H         32.40200       49.78800       -0.01800
C         31.94200       50.80600        1.79000
H         31.16200       51.51700        2.03200
C         31.54100       49.47300        2.42400
H         32.31300       48.73500        2.20200
H         31.49700       49.59200        3.50800
S         29.94400       48.83400        1.85000
C         33.24100       51.35100        2.39900
O         34.32900       51.14700        1.86000
N         33.12900       52.01700        3.55100
H         32.19700       52.16700        3.92600
C         34.27600       52.42400        4.37100
H         34.97800       52.92900        3.70700
C         33.82800       53.44400        5.44600
H         33.25900       54.22100        4.93200
C         32.91300       52.82200        6.52000
H         32.10800       52.25600        6.05300
H         33.48200       52.14600        7.16000
H         32.46700       53.60300        7.13300
C         35.05800       54.11600        6.09500
H         35.58300       53.39900        6.72700
H         35.74000       54.43600        5.30500
C         34.71300       55.35300        6.93500
H         34.15400       56.06900        6.33200
H         34.12300       55.07000        7.80600
H         35.63500       55.82300        7.27800
C         34.99800       51.19700        4.95800
O         34.37700       50.23100        5.39000
N         36.32300       51.21500        5.00100
H         36.79300       50.40500        5.36900
H         36.83300       51.99300        4.61900
H         27.96200       57.16000        5.01400
C         28.33500       56.14200        5.12500
H         29.11500       56.13000        5.88300
H         28.73000       55.80400        4.17000
C         27.18500       55.24700        5.55500
O         26.06700       55.73800        5.64200
N         27.42600       53.95000        5.82800
C         26.38900       53.03300        6.28200
H         25.52200       53.05800        5.62100
H         26.09100       53.30200        7.29700
C         27.02400       51.64300        6.27900
H         26.89800       51.18300        5.29800
H         26.60800       51.00600        7.06000
C         28.50100       51.95100        6.52200
H         29.14700       51.14600        6.16600
H         28.66600       52.12200        7.58700
C         28.71900       53.26100        5.75500
H         29.49100       53.84100        6.26100
C         29.19600       52.97300        4.32200
O         30.37200       52.67100        4.13300
N         28.31800       53.07400        3.31800
H         27.37300       53.36500        3.52700
C         28.61700       52.76300        1.91900
H         29.68800       52.83900        1.76300
C         28.14400       51.33500        1.59100
H         27.05600       51.36000        1.51300
H         28.52700       51.05800        0.60800
S         28.55600       50.01100        2.77100
C         27.94500       53.76700        0.97300
O         26.82600       54.20300        1.23900
N         28.59700       54.10700       -0.14300
H         29.51100       53.69700       -0.31100
C         27.96000       54.85900       -1.23500
H         27.29800       55.59400       -0.77400
C         29.00500       55.65200       -2.05700
H         29.61200       56.21500       -1.34500
C         29.94900       54.74500       -2.86700
H         30.41000       54.01100       -2.21300
H         29.40100       54.22500       -3.65300
H         30.74600       55.33500       -3.31800
C         28.30100       56.67100       -2.98100
H         27.80600       56.14800       -3.80100
H         27.53900       57.19800       -2.40600
C         29.24400       57.72900       -3.56900
H         29.78000       58.23800       -2.76700
H         29.95800       57.26800       -4.25100
H         28.65900       58.46200       -4.12400
C         27.07600       53.93000       -2.08700
O         27.42000       52.78200       -2.34800
N         25.92600       54.40600       -2.54200
H         25.34300       53.79300       -3.08700
H         25.63100       55.33800       -2.30300
