104
0 1
H         36.30800       52.46600       -1.52500
C         36.83600       52.38700       -0.57800
H         36.27700       52.88100        0.21300
H         37.81000       52.86700       -0.67200
C         37.04800       50.92500       -0.22600
O         38.19200       50.52800       -0.04400
N         35.98100       50.10800       -0.12900
C         36.09800       48.68800        0.17200
H         36.70500       48.52100        1.06300
H         36.54400       48.17600       -0.68200
C         34.67300       48.18400        0.39300
H         34.39400       48.31100        1.44000
H         34.56000       47.14300        0.08800
C         33.84800       49.12700       -0.48200
H         32.80700       49.17400       -0.15900
H         33.90500       48.80000       -1.52200
C         34.57200       50.47000       -0.32900
H         34.45300       51.04100       -1.24900
C         33.96200       51.28200        0.82600
O         32.89200       51.85900        0.65100
N         34.62700       51.34900        1.98300
H         35.53200       50.90400        2.04300
C         34.15100       52.03000        3.18900
H         33.34800       52.70500        2.92100
C         33.60400       50.99300        4.18000
H         34.42400       50.33200        4.46000
H         33.27400       51.50700        5.08400
S         32.23100       49.95800        3.59100
C         35.25000       52.89600        3.82100
O         36.43600       52.60800        3.66600
N         34.85700       53.96300        4.52100
H         33.85800       54.10500        4.65400
C         35.75500       54.96600        5.10800
H         36.62000       54.43300        5.50200
C         36.25000       55.94500        4.00900
H         36.72000       55.35100        3.22300
C         35.09800       56.73100        3.35300
H         34.62400       57.39300        4.07900
H         35.48300       57.33200        2.52900
H         34.34900       56.04800        2.95400
C         37.30400       56.96000        4.50300
H         37.57200       57.61300        3.67100
H         36.88400       57.58700        5.29000
C         38.59600       56.30800        5.00900
H         39.00800       55.65400        4.23900
H         39.32500       57.08500        5.23900
H         38.40700       55.73000        5.91300
C         35.07700       55.68600        6.28600
O         33.88500       55.97300        6.26500
N         35.82200       56.00200        7.33600
H         35.37800       56.47300        8.10700
H         36.80100       55.76800        7.35400
H         31.46700       56.57500        3.09400
C         31.34100       57.38900        3.80300
H         31.49300       58.33700        3.28800
H         32.06700       57.30300        4.60900
C         29.93100       57.36300        4.37100
O         29.15900       58.25600        4.04100
N         29.57200       56.37400        5.21400
C         28.30700       56.36500        5.93100
H         27.56400       55.81700        5.35000
H         27.95100       57.37600        6.13500
C         28.59600       55.63400        7.23800
H         27.69800       55.17800        7.65600
H         29.05200       56.32200        7.95300
C         29.61800       54.58700        6.80100
H         29.09300       53.73200        6.37200
H         30.24600       54.26500        7.63400
C         30.44100       55.30400        5.72200
H         31.31500       55.75400        6.19400
C         30.91100       54.30700        4.65600
O         32.01700       53.78400        4.76000
N         30.10700       54.07000        3.61400
H         29.23600       54.57800        3.55500
C         30.41800       53.16800        2.50200
H         31.49200       53.09600        2.39300
C         29.86400       51.76300        2.77800
H         28.78400       51.84800        2.90200
H         30.04100       51.13800        1.90000
S         30.52100       50.88200        4.22400
C         29.87400       53.70900        1.17400
O         28.88500       54.44100        1.14900
N         30.51700       53.33400        0.06800
H         31.31800       52.71700        0.17400
C         30.09400       53.67300       -1.29400
H         29.85500       54.73700       -1.32900
C         31.24500       53.40200       -2.29500
H         31.54000       52.35500       -2.19800
C         30.78600       53.63600       -3.74800
H         30.47600       54.67300       -3.88400
H         31.59400       53.41000       -4.44300
H         29.95800       52.97400       -4.00000
C         32.47300       54.28800       -1.96700
H         32.21800       55.33700       -2.12800
H         32.73800       54.17000       -0.91600
C         33.73100       53.95100       -2.77700
H         33.59900       54.22600       -3.82300
H         34.57600       54.51300       -2.37800
H         33.94800       52.88500       -2.70400
C         28.82100       52.88600       -1.64200
O         28.79500       51.66200       -1.58200
N         27.75300       53.56700       -2.03400
H         26.91600       53.05200       -2.25000
H         27.77000       54.57300       -2.03700
