104
0 1
H         31.32600       46.15100       -1.18200
C         31.99100       45.63200       -1.86900
H         31.63600       44.62000       -2.05000
H         32.99000       45.59000       -1.43500
C         32.06100       46.39200       -3.18000
O         33.12400       46.90000       -3.51100
N         30.94700       46.51800       -3.92700
C         29.63300       45.98800       -3.59000
H         29.33800       46.26300       -2.57600
H         29.64200       44.90200       -3.69900
C         28.66700       46.59900       -4.60300
H         28.31600       47.56800       -4.24200
H         27.82600       45.93700       -4.81200
C         29.55400       46.79800       -5.83100
H         29.14400       47.54600       -6.51100
H         29.67400       45.84600       -6.35100
C         30.89800       47.21800       -5.22100
H         31.70900       46.86200       -5.85900
C         31.02800       48.75400       -5.12200
O         30.88300       49.45400       -6.11800
N         31.24700       49.28700       -3.92000
H         31.43100       48.64900       -3.15900
C         31.41000       50.70400       -3.60700
H         32.04800       51.17800       -4.35500
C         30.02700       51.37000       -3.61000
H         29.58500       51.25500       -4.60100
H         29.39200       50.83400       -2.90500
S         29.97300       53.13200       -3.18000
C         32.06600       50.81900       -2.22300
O         31.76500       50.00100       -1.35100
N         32.89100       51.84200       -1.99500
H         33.03800       52.51600       -2.73500
C         33.52500       52.16200       -0.70300
H         32.91100       51.75900        0.10400
C         34.93400       51.53000       -0.57300
H         35.33800       51.85700        0.38700
C         34.84600       49.99500       -0.51300
H         34.57900       49.58800       -1.48900
H         35.80100       49.57400       -0.20100
H         34.09100       49.69600        0.21600
C         35.90700       52.01200       -1.67500
H         35.57400       51.64300       -2.64600
H         35.90100       53.10100       -1.70900
C         37.36000       51.57100       -1.45400
H         37.44700       50.48900       -1.54400
H         37.99400       52.03400       -2.21000
H         37.69800       51.88600       -0.46600
C         33.57100       53.68400       -0.50900
O         33.52000       54.44400       -1.47000
N         33.65900       54.15400        0.72500
H         33.64600       55.15100        0.86000
H         33.67600       53.51300        1.50800
H         27.89300       47.45000        3.88900
C         28.75300       47.07400        3.33800
H         28.52300       46.10500        2.90100
H         29.60300       46.96900        4.01100
C         29.11400       48.05900        2.24200
O         30.16100       48.69300        2.33400
N         28.28200       48.19300        1.19400
C         26.97600       47.57300        1.03200
H         26.39200       47.62400        1.95200
H         27.10200       46.53500        0.72000
C         26.28000       48.36700       -0.07300
H         25.77300       49.23100        0.36000
H         25.57600       47.75000       -0.63300
C         27.44600       48.83500       -0.94500
H         27.19300       49.73300       -1.51200
H         27.74100       48.03000       -1.61900
C         28.56400       49.08400        0.07300
H         29.52000       48.80800       -0.37400
C         28.62900       50.55400        0.50900
O         27.81500       51.02900        1.29600
N         29.60400       51.27000       -0.04500
H         30.26900       50.75800       -0.61100
C         29.90700       52.68400        0.19000
H         30.78800       52.90300       -0.40900
C         28.79500       53.58600       -0.36700
H         27.92200       53.49700        0.28100
H         29.14100       54.61800       -0.30300
S         28.26000       53.28600       -2.08000
C         30.32400       53.04900        1.63100
O         30.49800       54.23000        1.93000
N         30.54900       52.07100        2.51700
H         30.39300       51.11100        2.23500
C         31.11200       52.31600        3.85300
H         30.55600       53.13800        4.30400
C         30.93200       51.07500        4.76300
H         31.37400       50.21100        4.26500
C         31.64900       51.25500        6.11700
H         32.72000       51.39400        5.96900
H         31.23700       52.11100        6.65300
H         31.53600       50.36000        6.72800
C         29.42000       50.81100        4.97300
H         28.94900       51.70600        5.38300
H         28.95800       50.60800        4.00600
C         29.08800       49.62900        5.89200
H         29.67000       48.75500        5.60000
H         29.30600       49.88200        6.92900
H         28.02600       49.39600        5.81000
C         32.57700       52.77400        3.72800
O         33.35000       52.25900        2.92400
N         32.99000       53.75900        4.51400
H         32.34600       54.20000        5.14900
H         33.94500       54.06500        4.43500
