90
-2 1
H        -38.23500        8.81600      105.49900
C        -38.34000        9.16500      106.52400
H        -39.31500        9.62600      106.66700
H        -37.57000        9.90000      106.75400
C        -38.20400        7.99800      107.47100
O        -38.07600        6.86700      107.01400
N        -38.22300        8.26200      108.77700
H        -38.35800        9.23700      109.05400
C        -38.15400        7.21900      109.82000
H        -37.49600        6.42700      109.46400
C        -37.52400        7.79100      111.09900
H        -37.17000        6.95700      111.70600
H        -36.66200        8.40400      110.83200
O        -38.41300        8.55500      111.89300
H        -38.86600        9.24400      111.34900
C        -39.51800        6.56900      110.10200
O        -39.61600        5.35600      110.27000
N        -40.57100        7.38600      110.10500
H        -40.34800        8.37400      110.03900
C        -41.98700        7.01300      110.20700
H        -42.17200        6.12100      109.60700
C        -42.30100        6.69900      111.67800
H        -41.67800        5.86100      111.99400
H        -42.03100        7.56400      112.28600
S        -44.03300        6.28300      112.01800
C        -42.88500        8.15000      109.67100
O        -43.91500        7.91300      109.04800
N        -42.43600        9.39600      109.84100
H        -41.57700        9.50800      110.37500
C        -43.00800       10.63900      109.31700
H        -44.06100       10.66900      109.59900
C        -42.29100       11.82100      110.00800
H        -42.90700       12.70900      109.86100
H        -42.26400       11.63600      111.08400
C        -40.86200       12.17500      109.53000
H        -40.91800       12.49400      108.48700
H        -40.52500       13.04000      110.10600
C        -39.79700       11.06800      109.65900
O        -39.91800       10.16000      110.51400
O        -38.83000       11.07200      108.87300
C        -42.96100       10.78300      107.78100
O        -43.56200       11.69300      107.22000
N        -42.25600        9.91300      107.06600
H        -42.23600       10.01800      106.06700
H        -41.78500        9.15700      107.53300
H        -43.08600        4.08000      123.56100
C        -42.98900        3.60000      122.59100
H        -43.69100        2.77300      122.49900
H        -41.98000        3.21400      122.45400
C        -43.27500        4.60200      121.49800
O        -43.54200        5.76500      121.78900
N        -43.21200        4.15300      120.24900
H        -42.95000        3.17400      120.11900
C        -43.43900        4.96500      119.04800
H        -44.13800        5.75800      119.31200
C        -42.12200        5.65900      118.64700
H        -42.36100        6.51900      118.02100
H        -41.62700        6.03100      119.54500
O        -41.22300        4.83400      117.93000
H        -41.28200        3.90200      118.27000
C        -44.13000        4.15400      117.93100
O        -45.10200        3.44400      118.19400
N        -43.68800        4.27100      116.67500
H        -42.83000        4.78700      116.53400
C        -44.28800        3.59000      115.52200
H        -45.36400        3.76800      115.54900
C        -43.74300        4.21200      114.22900
H        -42.66400        4.06300      114.17800
H        -44.19400        3.68000      113.39000
S        -44.11300        5.97700      114.03200
C        -44.10400        2.05700      115.52000
O        -44.74700        1.37400      114.72600
N        -43.25300        1.50100      116.38900
H        -42.72400        2.10800      117.01400
C        -43.13000        0.05400      116.61700
H        -43.23100       -0.44600      115.65400
C        -41.72100       -0.27300      117.15700
H        -41.52100       -1.32400      116.94500
H        -40.98600        0.30500      116.59300
C        -41.47400       -0.05700      118.66400
H        -42.04500       -0.80600      119.21700
H        -40.41700       -0.24800      118.86600
C        -41.83300        1.34200      119.18400
O        -41.58200        2.34500      118.47700
O        -42.38600        1.43900      120.29800
C        -44.23900       -0.52600      117.52000
O        -44.42200       -1.73900      117.58000
N        -45.00200        0.30200      118.22600
H        -44.84200        1.30100      118.18600
H        -45.70200       -0.08600      118.83200
