90
-2 1
H        -50.01300        2.34000       99.78000
C        -49.14400        2.09400       99.17300
H        -49.28500        2.46400       98.16100
H        -48.99100        1.01800       99.17600
C        -47.94300        2.76900       99.78100
O        -46.91100        2.13300       99.98000
N        -48.06800        4.06100      100.07300
H        -48.93700        4.52600       99.81200
C        -46.97900        4.88100      100.63200
H        -46.10900        4.78200       99.98400
C        -47.37500        6.36100      100.66000
H        -48.25600        6.49300      101.29200
H        -46.55200        6.94400      101.07700
O        -47.65300        6.83700       99.35900
H        -48.54800        6.48300       99.11600
C        -46.53500        4.46900      102.04300
O        -45.46300        4.88800      102.48000
N        -47.32700        3.66900      102.76400
H        -48.19500        3.34400      102.35000
C        -46.96100        3.12300      104.07400
H        -46.22600        3.77200      104.55100
C        -48.21200        3.07600      104.96100
H        -48.88100        2.30000      104.58700
H        -47.89700        2.78300      105.96200
S        -49.15700        4.61900      105.09400
C        -46.35100        1.71400      103.96900
O        -45.57000        1.30400      104.82600
N        -46.74400        0.96200      102.94100
H        -47.47100        1.35300      102.34300
C        -46.45600       -0.45900      102.75000
H        -46.21700       -0.91100      103.71300
C        -47.72400       -1.13600      102.19600
H        -47.95100       -0.75500      101.20000
H        -47.50800       -2.20100      102.09700
C        -48.96300       -0.99500      103.10500
H        -49.56200       -1.90000      102.97300
H        -48.64600       -0.97400      104.15000
C        -49.87000        0.21900      102.81300
O        -49.40400        1.25900      102.29300
O        -51.08000        0.10900      103.11300
C        -45.26000       -0.72500      101.82000
O        -44.61700       -1.76800      101.90300
N        -44.92400        0.19800      100.92700
H        -44.14200        0.02600      100.32100
H        -45.50200        1.02400      100.82500
H        -52.86800        3.97300       96.88200
C        -52.20400        3.11800       96.77400
H        -51.21500        3.39800       97.13300
H        -52.15200        2.80700       95.73300
C        -52.74000        1.98100       97.61200
O        -53.22200        0.99300       97.06700
N        -52.66100        2.13700       98.93000
H        -52.22900        2.99900       99.26300
C        -53.21100        1.22400       99.93800
H        -54.12700        0.78500       99.54300
C        -52.23900        0.06900      100.19800
H        -52.16400       -0.53900       99.29500
H        -51.25100        0.46600      100.42800
O        -52.67100       -0.74500      101.26800
H        -52.15600       -0.45100      102.06400
C        -53.60800        1.99500      101.20500
O        -54.79900        2.25500      101.39500
N        -52.65400        2.45000      102.03000
H        -51.69200        2.15700      101.89100
C        -52.96300        3.23900      103.23100
H        -53.69800        2.67700      103.80800
C        -51.70900        3.38200      104.09700
H        -52.02800        3.73100      105.07900
H        -51.25900        2.39700      104.22600
S        -50.43400        4.52800      103.50500
C        -53.58900        4.61800      102.93500
O        -54.22600        5.20800      103.80700
N        -53.45000        5.12200      101.70600
H        -52.83800        4.62200      101.06300
C        -54.11300        6.32600      101.19600
H        -53.96300        7.13400      101.91200
C        -53.48100        6.73900       99.85000
H        -53.73500        6.00800       99.08100
H        -53.93500        7.68600       99.55600
C        -51.95400        6.95200       99.87600
H        -51.72200        7.73700       99.15200
H        -51.65400        7.32100      100.85900
C        -51.13000        5.70400       99.51000
O        -51.58800        4.56400       99.74200
O        -50.00200        5.87500       98.99800
C        -55.63700        6.16000      101.01300
O        -56.35400        7.13800      100.81300
N        -56.17300        4.94500      101.06400
H        -57.16600        4.84900      100.95400
H        -55.58300        4.13900      101.23400
