99
-1 1
H        -22.30300       25.84000       27.18400
C        -22.94000       26.63100       27.57400
H        -23.65600       26.20600       28.27300
H        -23.47100       27.11400       26.75700
C        -22.08600       27.65200       28.28800
O        -20.87200       27.49000       28.34700
N        -22.71500       28.70300       28.81700
H        -23.72200       28.66100       28.85800
C        -22.05300       29.91800       29.34000
H        -21.39100       30.28200       28.55400
C        -23.07100       31.04300       29.62100
H        -22.51500       31.94100       29.89400
C        -23.89300       31.37900       28.36900
H        -23.22300       31.59100       27.53600
H        -24.55000       30.55000       28.10500
H        -24.50300       32.26200       28.56100
C        -24.03400       30.72300       30.76900
H        -24.56000       29.78800       30.58000
H        -23.48000       30.65000       31.70500
H        -24.76600       31.52300       30.87700
C        -21.14200       29.69200       30.55700
O        -20.23200       30.48700       30.77300
N        -21.31300       28.59600       31.30200
H        -22.12700       28.01200       31.10900
C        -20.23600       28.00100       32.10700
H        -19.30400       28.26500       31.60400
C        -20.14600       28.62700       33.51300
H        -19.12000       28.47500       33.84800
H        -20.29500       29.70500       33.43300
S        -21.20200       27.98700       34.84600
C        -20.27000       26.45800       32.07100
O        -19.84500       25.77500       33.00300
N        -20.81000       25.90900       30.98100
H        -21.14600       26.55200       30.27500
C        -21.20800       24.50700       30.81900
H        -20.95800       23.96900       31.73100
C        -22.73800       24.36900       30.60200
H        -22.92500       24.31200       29.52900
H        -23.05300       23.41300       31.02300
C        -23.64600       25.48500       31.14700
O        -23.43300       26.67600       30.82200
O        -24.64100       25.16500       31.83100
C        -20.45000       23.80500       29.67700
O        -20.36600       22.58300       29.63500
N        -19.87400       24.54600       28.73500
H        -19.37300       24.07900       28.00000
H        -19.96300       25.55300       28.76100
H        -26.15800       23.14800       31.55000
C        -27.12400       22.97000       32.01800
H        -27.21000       21.92100       32.28700
H        -27.91900       23.24800       31.32900
C        -27.23700       23.81100       33.26800
O        -28.23600       24.49700       33.45600
N        -26.22800       23.74500       34.13300
H        -25.40000       23.22900       33.85900
C        -26.17000       24.46600       35.41600
H        -27.10900       24.31900       35.94900
C        -25.02700       23.87300       36.25600
H        -24.90000       24.45600       37.16800
H        -25.29700       22.85700       36.54400
C        -23.71400       23.81600       35.51400
N        -23.30700       22.75700       34.70000
C        -22.16100       23.15800       34.12900
H        -21.58900       22.56900       33.42600
N        -21.84200       24.40100       34.53000
H        -21.05000       24.94300       34.18300
C        -22.81500       24.83500       35.40200
H        -22.89500       25.81100       35.86000
C        -25.98900       25.98700       35.28200
O        -26.22400       26.70600       36.25100
N        -25.57900       26.47300       34.11100
H        -25.34800       25.80100       33.38200
C        -25.37600       27.88700       33.79000
H        -25.65800       28.51000       34.64000
C        -23.88500       28.09700       33.49300
H        -23.41000       27.12400       33.36800
H        -23.77900       28.61500       32.54400
S        -22.95400       29.01200       34.73900
C        -26.23700       28.32900       32.59400
O        -26.79600       29.42400       32.61400
N        -26.36000       27.49500       31.55400
H        -25.79100       26.64800       31.56500
C        -27.17300       27.78700       30.35500
H        -27.16100       28.86600       30.21000
C        -26.50700       27.15800       29.11300
H        -25.43800       27.34900       29.18600
C        -26.71800       25.64200       29.00700
H        -27.76800       25.41400       28.82500
H        -26.11900       25.24400       28.18800
H        -26.40500       25.16000       29.93200
C        -26.96500       27.80700       27.80200
H        -26.37600       27.41400       26.97400
H        -28.01800       27.59400       27.61800
H        -26.82400       28.88600       27.85700
C        -28.65400       27.39900       30.50700
O        -29.49200       27.80000       29.70600
N        -29.02700       26.63400       31.52400
H        -28.34700       26.28500       32.18400
H        -30.00000       26.40100       31.62100
