99
-1 1
H        -34.38000       33.83400       31.39700
C        -34.83700       33.15400       32.11300
H        -34.13600       32.35300       32.34200
H        -35.75800       32.74200       31.70600
C        -35.14800       33.91200       33.38200
O        -36.30600       34.01600       33.76900
N        -34.10300       34.43500       34.01900
H        -33.19000       34.25800       33.60300
C        -34.15400       35.16700       35.30000
H        -35.18300       35.46800       35.50000
C        -33.68900       34.25200       36.45500
H        -32.67100       33.93100       36.24200
C        -33.68900       34.96500       37.81500
H        -34.68200       35.35900       38.02900
H        -33.39800       34.26700       38.60100
H        -32.96900       35.78300       37.81400
C        -34.56600       32.99900       36.59500
H        -34.23500       32.40300       37.44500
H        -35.60800       33.28800       36.73500
H        -34.48400       32.38300       35.70000
C        -33.31200       36.44800       35.26500
O        -33.74400       37.47900       35.77600
N        -32.12500       36.40800       34.65300
H        -31.82900       35.52100       34.25200
C        -31.18900       37.54500       34.58300
H        -31.77800       38.46000       34.51800
C        -30.38900       37.61200       35.89500
H        -29.66500       38.42500       35.82400
H        -31.09300       37.87600       36.68400
S        -29.51600       36.11500       36.44600
C        -30.30200       37.53900       33.31900
O        -29.33300       38.28300       33.20500
N        -30.65600       36.69700       32.35300
H        -31.46500       36.11600       32.54900
C        -29.81900       36.19900       31.25800
H        -28.82500       36.00400       31.65800
C        -30.41400       34.84900       30.81600
H        -31.36200       35.02900       30.30400
H        -29.74300       34.36000       30.11500
C        -30.66800       33.92100       32.01000
O        -29.84000       33.01400       32.22700
O        -31.64500       34.17500       32.75600
C        -29.61400       37.16500       30.07500
O        -28.91900       36.84500       29.11400
N        -30.19000       38.36000       30.11200
H        -30.69800       38.63000       30.93800
H        -30.03400       38.99500       29.34800
H        -30.84200       29.56800       32.42700
C        -30.22400       29.90100       31.59600
H        -30.62700       30.83200       31.20300
H        -30.20400       29.14800       30.81300
C        -28.81700       30.13700       32.09600
O        -28.48500       29.74600       33.21000
N        -27.96700       30.74500       31.27100
H        -28.32700       31.12500       30.40400
C        -26.54100       30.95900       31.56600
H        -26.10500       30.00500       31.86300
C        -25.82100       31.42900       30.29100
H        -24.80500       31.74200       30.53400
H        -25.74700       30.58100       29.60900
C        -26.52300       32.54400       29.55800
N        -27.47700       32.35200       28.55700
C        -27.91600       33.57700       28.23400
H        -28.69400       33.78100       27.51000
N        -27.30600       34.51100       28.98100
H        -27.57000       35.49600       28.98900
C        -26.42600       33.87800       29.83300
H        -25.81600       34.33000       30.60100
C        -26.25600       31.91400       32.73800
O        -25.13400       31.91200       33.23600
N        -27.23000       32.70200       33.20200
H        -28.14200       32.67000       32.74400
C        -27.10200       33.54000       34.40000
H        -26.06400       33.86300       34.48800
C        -27.95200       34.80100       34.18600
H        -27.67300       35.22300       33.22300
H        -29.00400       34.51700       34.14400
S        -27.75800       36.11300       35.42000
C        -27.44000       32.79500       35.71200
O        -27.09900       33.27300       36.79200
N        -28.07600       31.61400       35.64000
H        -28.32900       31.27100       34.72000
C        -28.55100       30.85300       36.82000
H        -28.08300       31.27000       37.71100
C        -30.07500       31.00700       37.00600
H        -30.37900       30.38600       37.84900
C        -30.45100       32.45000       37.35800
H        -30.29600       33.10200       36.49800
H        -31.49600       32.48700       37.65900
H        -29.83500       32.80200       38.18500
C        -30.88500       30.56500       35.77800
H        -30.64500       29.53400       35.52200
H        -31.95000       30.63300       36.00000
H        -30.66500       31.20600       34.92300
C        -28.15700       29.36900       36.83800
O        -28.29400       28.70300       37.85800
N        -27.64200       28.81000       35.75400
H        -27.60500       29.33100       34.88800
H        -27.38400       27.84000       35.79200
