99
-1 1
H        -17.91000       29.75600       33.63700
C        -18.74000       29.45200       34.27300
H        -18.49100       28.53500       34.80300
H        -19.62900       29.28400       33.67100
C        -19.02000       30.54200       35.28000
O        -18.32200       31.54800       35.30400
N        -20.03500       30.33100       36.11600
H        -20.55100       29.46300       35.98700
C        -20.44800       31.26200       37.18600
H        -19.56000       31.80300       37.51300
C        -21.43400       32.30500       36.61200
H        -21.04000       32.65600       35.65700
C        -22.83600       31.73700       36.36000
H        -23.42300       32.45200       35.78200
H        -22.76700       30.80500       35.80200
H        -23.34800       31.55000       37.30300
C        -21.56900       33.53300       37.51900
H        -22.20200       34.27700       37.03500
H        -22.01200       33.25700       38.47600
H        -20.58500       33.96800       37.69200
C        -21.01000       30.56600       38.43700
O        -20.88900       31.10100       39.53600
N        -21.58400       29.36500       38.30700
H        -21.66800       28.97600       37.37200
C        -22.17300       28.60200       39.42500
H        -21.58900       28.81500       40.32100
C        -23.60000       29.11500       39.68000
H        -24.04700       28.53200       40.48600
H        -23.51000       30.14100       40.03600
S        -24.75800       29.14100       38.27900
C        -22.09300       27.07100       39.24000
O        -22.71800       26.29800       39.96000
N        -21.30000       26.63000       38.26800
H        -20.84800       27.34800       37.71200
C        -21.32400       25.30900       37.63400
H        -22.36800       25.01100       37.53400
C        -20.74600       25.46100       36.21200
H        -19.67100       25.63200       36.28500
H        -20.89900       24.53600       35.65600
C        -21.37000       26.63200       35.43800
O        -21.16000       27.80200       35.83600
O        -22.11800       26.36200       34.47700
C        -20.63200       24.18100       38.42700
O        -20.50400       23.05800       37.94500
N        -20.18000       24.43300       39.64800
H        -20.35500       25.33700       40.05600
H        -19.74200       23.69000       40.16500
H        -20.42000       24.52700       32.63700
C        -20.83900       24.81700       31.67500
H        -20.23400       24.41400       30.86500
H        -20.87200       25.90200       31.61100
C        -22.24400       24.27400       31.56300
O        -22.54700       23.53500       30.63400
N        -23.09100       24.63100       32.52400
H        -22.73100       25.26400       33.23600
C        -24.50500       24.23500       32.60400
H        -24.93200       24.24200       31.60000
C        -24.61300       22.80000       33.15900
H        -25.66700       22.52100       33.19500
H        -24.11900       22.11500       32.46900
C        -24.02300       22.59800       34.53600
N        -24.71900       22.71700       35.74100
C        -23.81200       22.54600       36.71200
H        -24.02800       22.60100       37.77100
N        -22.59500       22.33900       36.18500
H        -21.73000       22.27800       36.72500
C        -22.70700       22.37000       34.81300
H        -21.91100       22.27900       34.08800
C        -25.33300       25.21900       33.44400
O        -26.38600       25.66700       32.99700
N        -24.83300       25.61700       34.61500
H        -23.91800       25.26900       34.86900
C        -25.45900       26.58900       35.51300
H        -26.52000       26.35200       35.59700
C        -24.81600       26.42200       36.89600
H        -24.83200       25.36100       37.14600
H        -23.77700       26.74600       36.84600
S        -25.62800       27.30200       38.25400
C        -25.34600       28.02800       34.97300
O        -26.25400       28.83600       35.15100
N        -24.27400       28.32300       34.22700
H        -23.52200       27.63500       34.19200
C        -24.11600       29.55300       33.42600
H        -24.35700       30.39500       34.07400
C        -22.63500       29.68600       33.00500
H        -22.02600       29.45400       33.87700
C        -22.24300       28.71000       31.88600
H        -21.16700       28.75900       31.72000
H        -22.50400       27.69300       32.17600
H        -22.75700       28.96400       30.96000
C        -22.24800       31.10600       32.57600
H        -22.73500       31.37200       31.63800
H        -22.54400       31.81700       33.34600
H        -21.16800       31.16500       32.44200
C        -25.08600       29.63800       32.22800
O        -25.17200       30.66100       31.55800
N        -25.84200       28.59100       31.91600
H        -26.48500       28.67800       31.15000
H        -25.82400       27.75900       32.48800
