106
1 1
H         12.14400      -12.44200        6.95600
C         12.38800      -12.99700        7.86000
H         11.59000      -13.70800        8.07200
H         12.49600      -12.31200        8.69900
C         13.67800      -13.75300        7.65100
O         13.70000      -14.97300        7.74400
N         14.76300      -13.02300        7.38800
H         14.63700      -12.02500        7.33500
C         16.10600      -13.54900        7.06500
H         15.96400      -14.36500        6.35400
C         16.94700      -12.46700        6.34200
H         17.94700      -12.87800        6.18800
C         16.35600      -12.19300        4.94600
H         16.25300      -13.12900        4.39500
H         15.37800      -11.71900        5.02500
H         17.01900      -11.54100        4.37700
C         17.07800      -11.15700        7.15700
H         17.28000      -11.39300        8.20100
H         16.14000      -10.60200        7.11900
C         18.21100      -10.24800        6.66500
H         18.28800       -9.38100        7.32200
H         19.15800      -10.78900        6.68300
H         18.00900       -9.90000        5.65200
C         16.84000      -14.19200        8.26600
O         17.96700      -13.82700        8.61200
N         16.20300      -15.15700        8.93100
H         15.27000      -15.40500        8.60800
C         16.74600      -15.85300       10.09800
H         17.21700      -15.11800       10.75200
C         15.58800      -16.48800       10.87800
H         14.83600      -15.72700       11.08900
H         15.12000      -17.25600       10.25900
S         16.09400      -17.23300       12.45500
C         17.81400      -16.90800        9.75100
O         18.70400      -17.16100       10.55600
N         17.74200      -17.55300        8.58600
H         16.97500      -17.33400        7.96000
C         18.54100      -18.74500        8.27100
H         18.41700      -19.44500        9.09600
C         17.96600      -19.42800        7.01900
H         18.14900      -18.80100        6.14600
H         18.46300      -20.38500        6.86200
C         16.46900      -19.65200        7.13100
O         15.68300      -18.73300        6.98300
N         16.02800      -20.84100        7.45800
H         15.03200      -20.96000        7.48900
H         16.67500      -21.60600        7.62900
C         20.05600      -18.48300        8.15200
O         20.50700      -17.40300        7.77700
N         20.87400      -19.47600        8.47000
H         21.86500      -19.34400        8.36100
H         20.49900      -20.32900        8.86800
H         20.61600      -16.29800       16.75100
C         21.36200      -15.87100       16.08300
H         22.34600      -16.26500       16.33200
H         21.36700      -14.78700       16.19100
C         21.02100      -16.22900       14.65600
O         20.80200      -15.33900       13.83400
N         20.97800      -17.53100       14.35800
H         21.14300      -18.19000       15.10800
C         20.62500      -18.09800       13.04400
H         20.10700      -17.34100       12.46200
C         21.88600      -18.55300       12.27800
H         22.42900      -19.25600       12.91200
H         21.57000      -19.10600       11.39100
C         22.87700      -17.46400       11.82500
H         23.16300      -16.83800       12.67100
H         23.77700      -17.97200       11.47800
C         22.37500      -16.58600       10.66600
H         23.23500      -16.09500       10.20600
H         21.90200      -17.22100        9.91900
N         21.44100      -15.55200       11.12800
H         21.38500      -15.40600       12.13000
C         20.60500      -14.83200       10.40900
N         20.47700      -14.94200        9.12100
H         20.86700      -15.75200        8.65100
H         19.73300      -14.43200        8.66700
N         19.83200      -13.97100       11.00000
H         19.16400      -13.46400       10.44300
H         19.86800      -13.89600       12.00500
C         19.66900      -19.28600       13.18700
O         19.89000      -20.16200       14.01600
N         18.65000      -19.33400       12.33500
H         18.54700      -18.54800       11.70800
C         17.83400      -20.51800       12.07300
H         17.60200      -21.01000       13.01900
C         16.51400      -20.09700       11.40100
H         16.72700      -19.54000       10.49000
H         15.98700      -21.00400       11.10300
S         15.35400      -19.13300       12.40900
C         18.58900      -21.52400       11.17900
O         19.52900      -21.15800       10.46800
N         18.13400      -22.77900       11.15600
H         17.40800      -23.04700       11.80500
C         18.69000      -23.85900       10.32700
H         19.70300      -24.06400       10.67200
C         17.85600      -25.13200       10.51400
H         16.87100      -24.99300       10.06400
H         18.35600      -25.97000       10.02500
O         17.70300      -25.40800       11.89300
H         17.27700      -26.26500       12.00300
C         18.74900      -23.51500        8.82900
O         17.90300      -22.80100        8.29500
N         19.72900      -24.04800        8.11100
H         20.42500      -24.63000        8.54800
H         19.76500      -23.84600        7.12500
