106
1 1
H         10.62600      -17.98300       16.90300
C         11.34400      -18.80300       16.88600
H         11.28800      -19.31200       15.92500
H         11.10600      -19.50300       17.68600
C         12.73400      -18.25500       17.09400
O         12.90800      -17.04900       17.23200
N         13.73500      -19.13400       17.08300
H         13.48900      -20.10500       16.96400
C         15.14800      -18.82900       17.40800
H         15.17900      -18.42100       18.41900
C         15.96400      -20.15200       17.39900
H         15.93800      -20.54700       16.38200
C         17.44700      -19.94800       17.76000
H         17.96200      -19.40700       16.96600
H         17.54100      -19.38800       18.69100
H         17.94400      -20.91300       17.87400
C         15.36400      -21.24600       18.31900
H         15.98400      -22.14100       18.24700
H         14.37600      -21.52800       17.95400
C         15.24000      -20.87100       19.80300
H         14.83200      -21.72000       20.35300
H         16.21700      -20.62600       20.21800
H         14.56600      -20.02300       19.92700
C         15.77700      -17.74700       16.49800
O         16.78900      -17.13800       16.84400
N         15.17100      -17.45400       15.34500
H         14.32600      -17.95400       15.11500
C         15.60200      -16.39100       14.43700
H         16.69100      -16.33500       14.47200
C         15.22600      -16.80800       13.00900
H         15.66700      -16.09600       12.31000
H         15.68400      -17.77800       12.80800
S         13.45300      -16.94500       12.64600
C         15.08700      -14.97500       14.78700
O         15.51600      -14.02300       14.13700
N         14.18500      -14.79300       15.76200
H         13.85900      -15.59800       16.28300
C         13.59300      -13.47900       16.07700
H         13.34600      -13.00000       15.12800
C         12.26300      -13.67100       16.83400
H         11.61200      -12.82800       16.60100
H         11.75600      -14.57700       16.50200
C         12.42100      -13.69000       18.34600
O         12.40200      -12.66300       18.99500
N         12.59700      -14.83700       18.95300
H         12.63200      -15.69800       18.42300
H         12.69200      -14.80000       19.95200
C         14.55800      -12.51700       16.81300
O         15.53800      -12.93000       17.43100
N         14.31100      -11.21800       16.76400
H         14.86800      -10.59300       17.32300
H         13.53300      -10.86900       16.21800
H         20.32900      -11.41000        9.98700
C         20.62600      -11.41900       11.03500
H         20.85100      -10.40500       11.36000
H         21.51000      -12.04500       11.15300
C         19.50100      -11.98200       11.87000
O         19.68100      -12.98900       12.55200
N         18.33700      -11.32600       11.83200
H         18.26500      -10.53900       11.20100
C         17.08600      -11.78500       12.46500
H         17.24900      -12.77400       12.89400
C         16.62100      -10.83900       13.59300
H         16.15400       -9.96500       13.13500
H         15.84100      -11.34700       14.16100
C         17.67400      -10.31100       14.58800
H         18.28900       -9.57200       14.07400
H         17.14400       -9.78600       15.38400
C         18.62300      -11.33100       15.23800
H         19.32000      -11.70000       14.49500
H         19.22000      -10.80200       15.98300
N         17.92900      -12.44400       15.91000
H         17.19500      -12.20700       16.56500
C         18.23700      -13.72800       15.87900
N         19.07200      -14.25400       15.02800
H         19.41900      -13.69100       14.25400
H         19.31800      -15.22000       15.09500
N         17.67000      -14.51300       16.74300
H         17.77800      -15.52000       16.73700
H         16.95200      -14.11100       17.33900
C         15.98700      -11.92100       11.40400
O         15.95400      -11.13600       10.46400
N         15.08200      -12.88600       11.55900
H         15.15300      -13.46900       12.38300
C         13.96100      -13.11200       10.63000
H         14.31000      -12.95300        9.60800
C         13.50900      -14.57100       10.76000
H         12.73800      -14.76800       10.01200
H         14.35800      -15.21500       10.53100
S         12.85000      -15.01900       12.39200
C         12.76400      -12.16700       10.85000
O         11.93900      -12.00700        9.95800
N         12.64300      -11.57500       12.04200
H         13.35700      -11.74900       12.73200
C         11.58900      -10.62700       12.42500
H         11.46800       -9.88700       11.63300
C         10.25500      -11.36600       12.60400
H          9.98700      -11.86200       11.67000
H         10.35400      -12.11800       13.38800
O          9.22900      -10.45700       12.94900
H          8.37700      -10.88000       12.80300
C         11.99100       -9.90400       13.71700
O         12.83200      -10.39600       14.46900
N         11.42300       -8.74000       14.00100
H         10.68200       -8.39700       13.40900
H         11.67600       -8.26700       14.85200
