106
1 1
H         22.20300      -19.70300        2.79300
C         21.53000      -20.53900        2.60800
H         21.43800      -20.70300        1.53500
H         20.54700      -20.31000        3.01900
C         22.07300      -21.78500        3.26200
O         21.43900      -22.34200        4.15300
N         23.27000      -22.20500        2.85000
H         23.71400      -21.67600        2.11500
C         23.90900      -23.48200        3.23600
H         23.20000      -24.27700        2.99900
C         25.17400      -23.73100        2.37900
H         25.55100      -24.72200        2.64000
C         24.81100      -23.77200        0.88200
H         25.64800      -24.16800        0.30600
H         23.95800      -24.43300        0.72300
H         24.57000      -22.77700        0.50900
C         26.29600      -22.70900        2.68000
H         26.48700      -22.68800        3.75300
H         25.97800      -21.71200        2.37400
C         27.62600      -23.03300        1.98800
H         28.38800      -22.33000        2.32600
H         27.94200      -24.04500        2.24200
H         27.52700      -22.94100        0.90700
C         24.21900      -23.64700        4.73900
O         24.67000      -24.71400        5.16200
N         23.97200      -22.62700        5.56700
H         23.57500      -21.78700        5.17500
C         24.03700      -22.73600        7.02500
H         24.90900      -23.33700        7.28400
C         24.25600      -21.34100        7.62900
H         24.51900      -21.46200        8.68000
H         25.11600      -20.88700        7.13500
S         22.87200      -20.16700        7.53600
C         22.81100      -23.42800        7.65200
O         22.88700      -23.81300        8.81600
N         21.68600      -23.56300        6.93800
H         21.67600      -23.23000        5.98200
C         20.41500      -24.02500        7.51300
H         20.25300      -23.47300        8.44100
C         19.26600      -23.67400        6.55100
H         19.54000      -23.91100        5.52300
H         18.38500      -24.26300        6.80500
C         18.86800      -22.21700        6.67400
O         18.16800      -21.83400        7.59500
N         19.31500      -21.36300        5.78800
H         19.03700      -20.40500        5.90700
H         19.93600      -21.67600        5.05300
C         20.39700      -25.51500        7.90500
O         21.12100      -26.34100        7.35400
N         19.55800      -25.88300        8.86100
H         19.52000      -26.85000        9.13800
H         18.98500      -25.19000        9.32800
H         28.27900      -23.99800       12.72600
C         28.04300      -25.02000       12.43500
H         27.94500      -25.64000       13.32600
H         28.84100      -25.41300       11.80700
C         26.74400      -25.03800       11.66500
O         26.71800      -25.45300       10.50600
N         25.66000      -24.58400       12.29900
H         25.77500      -24.24200       13.24600
C         24.30100      -24.51800       11.73400
H         24.38000      -24.43500       10.65200
C         23.52700      -25.80900       12.10200
H         24.22700      -26.61800       12.32200
H         22.96200      -25.62600       13.01800
C         22.55100      -26.30700       11.01800
H         21.76900      -26.88500       11.51100
H         22.06900      -25.45800       10.53800
C         23.19000      -27.22900        9.96100
H         23.44300      -28.17400       10.44300
H         22.45000      -27.44600        9.19100
N         24.42000      -26.67000        9.37000
H         25.17100      -26.45300       10.01400
C         24.68600      -26.37500        8.11200
N         23.85600      -26.53700        7.12800
H         24.10000      -26.17300        6.21800
H         22.88700      -26.77100        7.32000
N         25.84100      -25.86000        7.81800
H         26.04600      -25.62600        6.86200
H         26.49600      -25.69500        8.57500
C         23.58300      -23.25900       12.23700
O         23.70300      -22.92800       13.40900
N         22.86300      -22.55800       11.36000
H         22.80900      -22.90500       10.41000
C         22.12300      -21.32700       11.68600
H         22.55800      -20.88300       12.58300
C         22.30200      -20.31500       10.54400
H         21.86400      -19.36400       10.85100
H         23.36900      -20.15100       10.39300
S         21.55100      -20.79400        8.96300
C         20.63100      -21.56100       12.00100
O         19.93800      -20.63100       12.39800
N         20.12700      -22.78600       11.82100
H         20.73800      -23.52000       11.49800
C         18.74100      -23.17500       12.10900
H         18.42500      -22.69300       13.03500
C         17.81200      -22.70200       10.98200
H         16.77500      -22.89300       11.25900
H         17.93800      -21.62700       10.83900
O         18.09900      -23.37200        9.77100
H         17.95800      -22.72900        9.04400
C         18.63800      -24.69400       12.30000
O         19.53900      -25.44400       11.92800
N         17.55300      -25.18000       12.88800
H         16.81800      -24.56400       13.19500
H         17.48700      -26.17600       13.01900
