84
0 1
H         71.53700       23.03200       47.02600
C         70.66700       23.28700       47.62900
H         70.00700       23.94300       47.06400
H         70.98600       23.79100       48.54000
C         69.92200       22.02500       47.99300
O         69.79500       21.70600       49.16900
N         69.46400       21.29400       46.98200
H         69.65300       21.60600       46.04000
C         68.71000       20.04300       47.10600
H         68.95800       19.56000       48.05000
C         67.20900       20.35900       47.11300
H         66.96700       20.91800       48.01900
H         66.97600       20.99800       46.25900
C         66.33900       19.12500       47.04200
C         65.96100       18.45200       48.22000
H         66.24700       18.84500       49.18500
C         65.21300       17.26200       48.13800
H         64.92700       16.72100       49.02800
C         64.84500       16.74900       46.87700
O         64.17700       15.57400       46.78300
H         64.47000       15.11200       45.98400
C         65.21400       17.43300       45.70100
H         64.92700       17.03700       44.73800
C         65.96000       18.62100       45.78400
H         66.25500       19.13600       44.87900
C         69.10200       19.08200       45.97200
O         69.26500       19.51900       44.83400
N         69.30300       17.79700       46.28700
H         69.05600       17.47700       47.21600
C         70.13700       16.89400       45.48300
H         70.08300       17.19700       44.43700
C         71.59900       17.04700       45.95200
H         71.65600       16.74800       46.99700
H         72.22000       16.34900       45.38900
S         72.35400       18.69300       45.78600
C         69.67400       15.41600       45.53900
O         70.49900       14.51100       45.66800
N         68.36400       15.13800       45.50600
H         67.69700       15.89500       45.43200
C         67.83300       13.76100       45.57900
H         68.49600       13.10800       45.01000
C         67.83800       13.26200       47.03100
H         67.40800       12.26000       47.07300
H         68.86400       13.20200       47.39200
O         67.09700       14.11400       47.87600
H         67.65000       14.89200       48.07000
C         66.43400       13.60800       44.96500
O         65.72100       14.57300       44.71500
N         66.00800       12.38200       44.68900
H         66.58400       11.58200       44.89100
H         65.09100       12.27800       44.28600
H         72.74700       21.30400       53.28700
C         72.26300       21.45600       52.32200
H         72.59800       22.39700       51.89000
H         71.18300       21.47300       52.45100
C         72.64200       20.32200       51.40000
O         73.42100       19.45900       51.77400
N         72.07000       20.32400       50.19800
H         71.38900       21.05000       50.00700
C         72.25200       19.29800       49.16500
H         71.49600       19.50400       48.40900
C         73.61300       19.52500       48.47900
H         73.68500       20.58100       48.21900
H         74.39600       19.31600       49.21000
S         74.00400       18.57600       46.97500
C         71.96600       17.84000       49.61900
O         72.74200       16.93500       49.30500
N         70.84000       17.54500       50.31000
C         69.83000       18.46000       50.83100
H         69.56700       19.22900       50.10700
H         70.20200       18.91900       51.74700
C         68.60500       17.60900       51.15800
H         67.95900       17.53900       50.28300
H         68.05200       18.00900       52.00900
C         69.21200       16.24100       51.46700
H         68.49800       15.43300       51.30200
H         69.56700       16.22800       52.49900
C         70.41200       16.16100       50.51600
H         71.20900       15.58500       50.98700
C         70.05200       15.52700       49.16300
O         69.08000       15.91600       48.51400
N         70.83900       14.56800       48.69900
H         71.68100       14.33100       49.20100
H         70.68100       14.21500       47.76500
