84
0 1
H         75.75200       15.91300       45.99100
C         75.71600       15.06500       46.67200
H         76.24300       15.30100       47.59400
H         76.17500       14.19800       46.19900
C         74.27400       14.74200       46.98600
O         73.81300       13.64500       46.70000
N         73.56600       15.69800       47.58400
H         74.00700       16.58800       47.74000
C         72.12000       15.60000       47.80600
H         71.88500       14.56200       48.04700
C         71.72400       16.45900       49.01500
H         72.38300       16.21700       49.85000
H         71.87400       17.51100       48.76800
C         70.29400       16.24000       49.47000
C         69.31000       17.21600       49.22200
H         69.56900       18.13700       48.71900
C         67.97600       16.98600       49.61200
H         67.20900       17.71800       49.41300
C         67.62100       15.77600       50.24300
O         66.33200       15.55500       50.60700
H         66.22500       14.67600       51.01000
C         68.61000       14.80100       50.49800
H         68.34000       13.88300       50.99600
C         69.94400       15.03500       50.11100
H         70.70000       14.28700       50.30700
C         71.32300       15.96100       46.53700
O         71.82400       16.65500       45.65300
N         70.07500       15.49900       46.44400
H         69.67400       15.03000       47.24400
C         69.23100       15.61200       45.25300
H         69.48600       16.53400       44.73000
C         69.55200       14.42900       44.32100
H         69.24000       14.70400       43.31300
H         70.63500       14.29600       44.28600
S         68.79000       12.81800       44.69100
C         67.73700       15.68600       45.61700
O         67.37500       15.71300       46.79100
N         66.84600       15.69400       44.62200
H         67.17100       15.63000       43.66800
C         65.40200       15.54800       44.84000
H         65.05700       16.34000       45.50600
C         64.67400       15.68900       43.49800
H         63.61000       15.49200       43.63500
H         64.79900       16.70600       43.12300
O         65.21000       14.78000       42.55500
H         65.15300       13.89300       42.94500
C         65.08300       14.18800       45.48200
O         65.21300       13.14600       44.84100
N         64.66500       14.17500       46.73800
H         64.51100       13.28400       47.19400
H         64.65600       15.02700       47.27700
H         65.99000       10.01400       43.88700
C         65.26000        9.76300       44.65400
H         64.88000        8.75700       44.48800
H         64.44000       10.47800       44.62800
C         65.92300        9.82400       46.00900
O         65.92800        8.84000       46.74100
N         66.48700       10.97900       46.34800
H         66.38700       11.76100       45.71300
C         67.09500       11.20700       47.65900
H         67.72900       10.34700       47.87400
C         67.99400       12.45000       47.61900
H         67.40400       13.31000       47.30900
H         68.35100       12.64400       48.63100
S         69.45100       12.28700       46.54700
C         66.02100       11.31700       48.76500
O         64.95600       11.89600       48.52800
N         66.27600       10.80400       49.98500
C         67.50300       10.15000       50.41700
H         68.38600       10.72100       50.12900
H         67.54600        9.14600       49.99000
C         67.41000       10.06200       51.93900
H         67.79600       10.98100       52.38400
H         67.94300        9.19300       52.32700
C         65.90400        9.96200       52.18200
H         65.63200       10.30000       53.18300
H         65.58100        8.93100       52.03000
C         65.31000       10.85000       51.08300
H         64.36200       10.42400       50.75200
C         65.06400       12.28500       51.57200
O         65.97400       13.10600       51.64500
N         63.83700       12.60600       51.95600
H         63.09000       11.93600       51.88000
H         63.66800       13.54600       52.27600
