84
0 1
H         76.19100       15.00600       46.28700
C         75.12300       15.10700       46.46900
H         74.83600       16.15600       46.44000
H         74.87900       14.68800       47.44500
C         74.36300       14.34700       45.40800
O         73.62400       13.42200       45.71900
N         74.53900       14.73900       44.14700
H         75.18900       15.48400       43.96200
C         73.95200       14.02500       43.01100
H         72.90600       13.82500       43.24900
C         73.98100       14.91500       41.76300
H         73.42100       15.82800       41.96800
H         75.01400       15.19900       41.55800
C         73.39000       14.26000       40.52900
C         72.01100       13.97500       40.46600
H         71.36000       14.24500       41.28700
C         71.47200       13.35000       39.32300
H         70.41600       13.13300       39.25800
C         72.30700       13.02200       38.23500
O         71.78100       12.44500       37.12400
H         72.38800       12.51100       36.36500
C         73.68800       13.29900       38.30600
H         74.33400       13.04200       37.48100
C         74.22600       13.91500       39.45100
H         75.28600       14.12700       39.49100
C         74.63500       12.66400       42.77500
O         75.84100       12.51100       42.97000
N         73.86400       11.66900       42.33200
H         72.90600       11.88300       42.09700
C         74.24300       10.25200       42.32800
H         74.73000       10.06000       43.28500
C         72.95700        9.41100       42.32600
H         73.22200        8.35300       42.32800
H         72.43800        9.61000       43.26500
S         71.76500        9.70400       40.98700
C         75.28800        9.81800       41.27100
O         75.42200        8.62800       40.99400
N         76.07000       10.74400       40.70400
H         75.92600       11.71100       40.96300
C         77.26900       10.42300       39.90600
H         77.00500        9.70100       39.13600
C         77.81600       11.67300       39.21200
H         78.18200       12.37600       39.96300
H         78.64500       11.39200       38.56000
O         76.81400       12.30200       38.44500
H         76.48000       11.64800       37.79800
C         78.40800        9.81100       40.73600
O         79.30300        9.18400       40.18600
N         78.41500        9.98000       42.05400
H         77.68700       10.51800       42.49800
H         79.16400        9.56400       42.58300
H         76.50200        6.01000       39.35500
C         77.04100        6.48100       38.53500
H         77.59500        5.72900       37.97600
H         77.73100        7.22300       38.93200
C         76.05900        7.16000       37.61100
O         76.07700        6.93100       36.40700
N         75.19200        7.99800       38.17100
H         75.22500        8.12100       39.17700
C         74.19800        8.75200       37.40700
H         73.59500        8.03100       36.85800
C         73.28200        9.50400       38.37600
H         73.88300       10.20200       38.95700
H         72.56500       10.08700       37.79900
S         72.34700        8.44200       39.50200
C         74.85600        9.74400       36.42100
O         75.76100       10.48500       36.82100
N         74.39500        9.83000       35.15700
C         73.30400        9.06200       34.57200
H         72.42400        9.06400       35.21700
H         73.64000        8.04000       34.39000
C         72.97700        9.74500       33.24500
H         72.24500       10.53700       33.41000
H         72.61300        9.03400       32.50300
C         74.31700       10.35800       32.83700
H         74.18700       11.20200       32.15900
H         74.94000        9.59000       32.37300
C         74.93400       10.77200       34.17700
H         76.01800       10.66400       34.12200
C         74.59700       12.22700       34.53900
O         73.53800       12.52500       35.08500
N         75.47600       13.16500       34.21700
H         76.34900       12.91500       33.78200
H         75.26200       14.12000       34.45300
