86
0 1
H         71.43300       92.56000       29.75900
C         70.37400       92.59800       30.01100
H         69.93400       93.50900       29.61100
H         70.25200       92.58100       31.09200
C         69.67800       91.40200       29.40900
O         70.28100       90.65200       28.65000
N         68.39700       91.22200       29.72200
H         67.95100       91.91000       30.32000
C         67.55800       90.10700       29.24600
H         68.15500       89.19600       29.29100
C         66.37300       89.91800       30.20400
H         65.70200       89.14600       29.82500
H         66.75400       89.59400       31.17300
O         65.66300       91.12600       30.38600
H         65.24300       91.38800       29.54400
C         67.10800       90.26000       27.78000
O         65.92600       90.13300       27.46800
N         68.04400       90.55900       26.87400
H         68.99700       90.61300       27.22100
C         67.83100       90.96400       25.47600
H         67.08200       91.75500       25.47200
C         69.14300       91.56300       24.94700
H         69.89100       90.76900       24.92100
H         68.98400       91.88800       23.91700
S         69.84800       92.96200       25.86000
C         67.30200       89.85500       24.52900
O         67.82900       89.65400       23.43500
N         66.27300       89.10800       24.93400
H         65.86800       89.32900       25.83700
C         65.61500       88.08200       24.10800
H         66.39600       87.45500       23.67600
C         64.70200       87.16800       24.95200
H         64.26200       86.42900       24.28200
C         65.51400       86.40700       26.00700
H         66.33000       85.86700       25.52700
H         65.92400       87.09700       26.74400
H         64.87100       85.68900       26.51600
C         63.55400       87.90700       25.65300
H         62.92900       88.41900       24.92200
H         62.93400       87.19100       26.19200
H         63.94500       88.63500       26.36400
C         64.84200       88.70700       22.93900
O         64.28600       89.79800       23.04600
N         64.76600       88.01900       21.80900
H         65.23900       87.13700       21.71700
H         64.26800       88.43100       21.03600
H         64.24800       96.66400       24.17700
C         63.42600       96.75300       24.88500
H         62.47500       96.67000       24.36200
H         63.47900       97.71700       25.39000
C         63.52500       95.65300       25.91500
O         63.66100       95.93000       27.10100
N         63.50200       94.40100       25.45700
H         63.46700       94.25300       24.46000
C         63.53200       93.19400       26.30600
H         62.62500       93.17000       26.91000
C         63.54500       91.94900       25.41400
H         63.64800       91.05600       26.03300
H         62.60400       91.88900       24.86600
O         64.61500       92.01500       24.49000
H         64.53300       91.23900       23.89500
C         64.71900       93.13800       27.27500
O         64.59800       92.55400       28.35100
N         65.82600       93.81500       26.95500
H         65.85600       94.23700       26.04000
C         66.99100       93.98400       27.82400
H         67.48800       93.02400       27.93900
C         67.96000       94.95800       27.14700
H         67.46800       95.92800       27.06400
H         68.82700       95.08800       27.79700
S         68.56700       94.50300       25.50200
C         66.66400       94.51900       29.23300
O         67.40300       94.22000       30.16800
N         65.58900       95.30300       29.38700
H         65.00400       95.49000       28.57900
C         65.17100       95.89800       30.66000
H         66.06000       96.26300       31.17800
C         64.27800       97.10300       30.33600
H         64.00400       97.61400       31.26100
H         64.81300       97.80200       29.69200
H         63.37000       96.77000       29.83200
C         64.46700       94.92000       31.62900
O         64.15500       95.28300       32.75700
N         64.18500       93.68700       31.22800
H         64.46300       93.37300       30.31000
H         63.76400       93.05300       31.88500
