86
0 1
H         65.22200       89.08600       38.63200
C         64.28700       88.87600       38.11600
H         63.44800       89.01900       38.79500
H         64.29200       87.84900       37.75200
C         64.14400       89.81300       36.94100
O         64.06000       89.36800       35.80200
N         64.12100       91.11600       37.21200
H         64.20800       91.42000       38.17100
C         64.02300       92.16000       36.18800
H         64.57200       91.84000       35.30300
C         62.55700       92.37900       35.79600
H         62.12300       91.43800       35.45200
H         61.99900       92.73300       36.66400
O         62.47500       93.33600       34.76000
H         61.72300       93.93700       34.94300
C         64.62200       93.48000       36.66900
O         64.41700       93.87300       37.81600
N         65.31500       94.18300       35.77500
H         65.44400       93.77600       34.85500
C         65.77800       95.55900       35.96400
H         65.94700       95.73800       37.02700
C         67.11600       95.72800       35.23200
H         66.99500       95.44300       34.18800
H         67.37500       96.78800       35.25800
S         68.51700       94.82400       35.95500
C         64.74600       96.60500       35.48900
O         65.01300       97.80300       35.54900
N         63.58200       96.16900       34.98700
H         63.43300       95.16800       34.95800
C         62.52400       97.02100       34.41400
H         62.67100       98.04000       34.77600
C         62.60200       97.06600       32.87100
H         61.77800       97.68600       32.51700
C         63.90000       97.71700       32.38300
H         63.86000       97.85500       31.30200
H         64.02700       98.69100       32.85800
H         64.75700       97.08900       32.62700
C         62.46800       95.68700       32.20800
H         63.29100       95.03800       32.50900
H         61.52500       95.22000       32.49000
H         62.48700       95.79900       31.12400
C         61.12800       96.58700       34.87700
O         60.87300       95.41800       35.15300
N         60.18600       97.51600       34.95300
H         60.39700       98.47500       34.73300
H         59.26800       97.23800       35.25800
H         67.72000       87.52800       34.39800
C         66.80400       88.10400       34.51800
H         66.79900       88.59600       35.48800
H         65.94000       87.44600       34.43900
C         66.73200       89.15100       33.43300
O         67.68200       89.31800       32.67700
N         65.60900       89.86300       33.36100
H         64.87000       89.63600       34.01800
C         65.34400       90.91200       32.36100
H         65.62600       90.52900       31.38000
C         63.84500       91.22800       32.31500
H         63.51600       91.55200       33.29900
H         63.66000       92.02700       31.59500
O         63.11200       90.07900       31.93800
H         62.18100       90.24100       32.10900
C         66.17200       92.18100       32.61800
O         65.66400       93.18900       33.11300
N         67.46500       92.12200       32.30400
H         67.81200       91.23400       31.95400
C         68.46700       93.15200       32.58200
H         67.97100       94.10500       32.76100
C         69.23800       92.75300       33.84800
H         69.57500       91.72200       33.72900
H         70.12900       93.37600       33.94400
S         68.30500       92.87100       35.39800
C         69.43300       93.35100       31.40400
O         69.61900       92.46400       30.57300
N         70.08000       94.51900       31.34500
H         69.92500       95.19500       32.07500
C         71.19500       94.75600       30.43100
H         70.92500       94.37600       29.44400
C         71.43000       96.26800       30.31600
H         70.52200       96.75900       29.96300
H         71.70800       96.67600       31.28900
H         72.23500       96.46200       29.60700
C         72.46200       94.01300       30.90200
O         72.74100       93.93100       32.09300
N         73.26500       93.49800       29.98100
H         73.02300       93.55200       29.00600
H         74.08800       93.01000       30.29300
