76
0 1
H        167.15300      133.99700      -26.53800
C        167.35800      133.84000      -25.48100
H        166.45500      133.51100      -24.97100
H        167.71200      134.76900      -25.03500
C        168.42900      132.78600      -25.32900
O        169.48700      133.05400      -24.77400
N        168.15900      131.58100      -25.82800
H        167.27100      131.43200      -26.28400
C        169.07300      130.43500      -25.75900
H        170.10000      130.80200      -25.75900
C        168.83000      129.68600      -24.44100
H        168.90900      130.39000      -23.61100
H        167.81700      129.28100      -24.44100
C        169.79400      128.55800      -24.19500
N        169.69600      127.27500      -24.73400
C        170.73800      126.58900      -24.24100
H        170.95400      125.55000      -24.45500
N        171.50100      127.38600      -23.47700
H        172.41400      127.13100      -23.10000
C        170.92300      128.63400      -23.43500
H        171.28100      129.50500      -22.90300
C        168.88400      129.52600      -26.97900
O        167.75500      129.28900      -27.40100
N        169.97900      129.04100      -27.57400
H        170.88200      129.25900      -27.18300
C        169.94300      128.31300      -28.85000
H        169.06100      128.65200      -29.39700
C        171.15900      128.71600      -29.69500
H        170.95500      128.39100      -30.71700
H        171.24300      129.80300      -29.71800
S        172.76900      128.00900      -29.24200
C        169.79300      126.78000      -28.73300
O        170.00000      126.06800      -29.71400
N        169.50100      126.24200      -27.54400
H        169.32900      126.86600      -26.76100
C        169.45600      124.79900      -27.26900
H        168.94300      124.63100      -26.32100
H        168.89800      124.29400      -28.05800
C        170.85400      124.17900      -27.18100
O        171.27900      123.76400      -26.10700
N        171.61900      124.21600      -28.27600
H        171.20700      124.61700      -29.11400
C        173.03300      123.80900      -28.32100
H        173.13100      122.81700      -27.87800
H        173.35200      123.75300      -29.36100
C        173.99900      124.75000      -27.58300
O        175.19600      124.48800      -27.53700
N        173.49700      125.84000      -26.99800
H        172.50300      125.97500      -27.08100
C        174.24800      126.83900      -26.23400
H        175.18500      127.04500      -26.75400
C        173.42000      128.14100      -26.21100
H        172.37900      127.90600      -25.99700
H        173.79000      128.76500      -25.39600
S        173.50700      129.15200      -27.71900
C        174.62700      126.31800      -24.82600
O        174.22000      126.88000      -23.80800
N        175.36300      125.20500      -24.75900
H        175.68300      124.79800      -25.63600
C        175.70500      124.47400      -23.52500
H        175.63500      125.16200      -22.68200
C        174.72300      123.31000      -23.26000
H        175.05800      122.79100      -22.36100
C        173.30100      123.81200      -22.98400
H        172.67100      122.97800      -22.67200
H        173.31700      124.55900      -22.19000
H        172.87500      124.25000      -23.88600
C        174.66600      122.28200      -24.39900
H        174.01000      121.45900      -24.11800
H        174.28000      122.74300      -25.30800
H        175.66000      121.88200      -24.59800
C        177.14900      123.96100      -23.55500
O        177.74100      123.76900      -24.60800
N        177.74700      123.72200      -22.39600
H        177.26500      123.87900      -21.52800
H        178.69600      123.38500      -22.41900
