76
0 1
H        170.65700      132.15100      -15.28200
C        170.07500      131.28000      -15.57700
H        169.63700      131.44900      -16.55800
H        169.28800      131.09900      -14.84800
C        170.98400      130.07800      -15.64900
O        172.20100      130.21500      -15.53800
N        170.40700      128.89300      -15.84400
H        169.41000      128.85600      -16.02300
C        171.16400      127.65000      -16.02800
H        171.75700      127.47300      -15.13100
C        170.19600      126.46600      -16.20300
H        170.77000      125.56400      -16.41800
H        169.66800      126.30700      -15.26200
C        169.16100      126.66100      -17.28600
N        168.02600      127.46700      -17.17600
C        167.43000      127.41900      -18.37800
H        166.53000      127.96100      -18.63900
N        168.13100      126.64600      -19.22400
H        167.95100      126.55900      -20.22300
C        169.22100      126.14800      -18.54800
H        170.00800      125.52200      -18.94500
C        172.12300      127.79500      -17.21700
O        171.70600      128.15500      -18.31200
N        173.42500      127.60200      -16.97700
H        173.69000      127.34700      -16.04100
C        174.51100      127.87000      -17.93500
H        175.39100      128.03400      -17.31300
C        174.85800      126.61900      -18.77000
H        175.58900      126.89700      -19.53000
H        175.36700      125.93300      -18.09400
S        173.55900      125.63300      -19.57900
C        174.40900      129.20500      -18.72000
O        174.94200      129.32700      -19.82400
N        173.76500      130.23000      -18.14400
H        173.30500      130.06700      -17.25400
C        173.60700      131.55900      -18.73800
H        173.13400      132.21600      -18.00800
H        174.58800      131.96700      -18.98000
C        172.74200      131.55400      -20.00000
O        171.52900      131.72900      -19.93100
N        173.36600      131.36500      -21.16600
H        174.34300      131.10400      -21.13100
C        172.69900      131.42300      -22.47300
H        172.15700      132.36600      -22.55500
H        173.45700      131.39400      -23.25500
C        171.70600      130.28500      -22.74100
O        170.87000      130.40400      -23.63300
N        171.74600      129.20200      -21.95900
H        172.43800      129.16200      -21.22300
C        170.87000      128.03800      -22.13100
H        170.91800      127.73200      -23.17700
C        171.39600      126.88600      -21.27400
H        171.13700      127.09800      -20.24500
H        170.86100      125.97600      -21.55000
S        173.17500      126.54700      -21.35900
C        169.38500      128.31000      -21.80300
O        168.55200      127.41800      -21.96400
N        169.03500      129.52000      -21.34700
H        169.77300      130.18500      -21.15800
C        167.64200      129.99600      -21.23600
H        167.05600      129.22700      -20.73400
C        167.55000      131.28200      -20.38700
H        166.49600      131.54200      -20.28300
C        168.09900      131.06500      -18.97200
H        169.16400      130.83200      -19.00400
H        167.95100      131.96800      -18.38200
H        167.56900      130.24500      -18.49100
C        168.26300      132.48400      -21.02400
H        169.31700      132.26500      -21.18600
H        167.79800      132.73600      -21.97700
H        168.18100      133.34900      -20.36700
C        166.97100      130.22700      -22.60000
O        165.75400      130.33700      -22.67300
N        167.71900      130.30800      -23.69400
H        168.72600      130.23900      -23.63100
H        167.26000      130.44700      -24.57800
