76
0 1
H        168.39400      124.93900      -26.76400
C        167.77100      124.75200      -25.89100
H        168.36100      124.25900      -25.12000
H        166.92700      124.12200      -26.16500
C        167.26000      126.06700      -25.35100
O        167.53400      126.41500      -24.21000
N        166.51000      126.80000      -26.17200
H        166.29900      126.43900      -27.09100
C        165.91400      128.09300      -25.81400
H        165.66400      128.07700      -24.75200
C        166.94900      129.20700      -26.04300
H        167.88200      128.93800      -25.54600
H        167.15200      129.29400      -27.11200
C        166.51600      130.55400      -25.52500
N        165.68000      131.44300      -26.19600
C        165.52100      132.49400      -25.37900
H        164.92800      133.36900      -25.61100
N        166.19300      132.29900      -24.23200
H        166.23000      132.95000      -23.46000
C        166.82500      131.07700      -24.30400
H        167.44600      130.61200      -23.54900
C        164.61300      128.32900      -26.59800
O        164.43700      127.78800      -27.68700
N        163.69200      129.12300      -26.04800
H        163.93000      129.61400      -25.19900
C        162.37900      129.40000      -26.64200
H        162.00600      128.46700      -27.06700
C        161.40900      129.79900      -25.52000
H        160.45600      130.09100      -25.96500
H        161.22200      128.91100      -24.91400
S        161.95600      131.11400      -24.39300
C        162.38400      130.40700      -27.81800
O        161.32600      130.67900      -28.38700
N        163.54100      130.96000      -28.20200
H        164.35600      130.79100      -27.62300
C        163.74700      131.73300      -29.43200
H        164.79100      132.04400      -29.47900
H        163.54800      131.09400      -30.29300
C        162.88000      132.99100      -29.53200
O        163.21400      134.03200      -28.97100
N        161.74700      132.89500      -30.23600
H        161.49200      131.98200      -30.58400
C        160.80200      134.00300      -30.43800
H        161.29600      134.79300      -31.00500
H        159.95400      133.64100      -31.01800
C        160.25400      134.62300      -29.14400
O        159.81700      135.76900      -29.16400
N        160.36100      133.92300      -28.00900
H        160.74800      132.99100      -28.07000
C        160.08100      134.45500      -26.66900
H        159.03500      134.76400      -26.62900
C        160.29900      133.31900      -25.66600
H        159.97800      133.65800      -24.67900
H        159.67800      132.47000      -25.95200
S        162.02500      132.77800      -25.55200
C        160.93800      135.67600      -26.26500
O        160.59300      136.35500      -25.30100
N        162.03800      135.96000      -26.97600
H        162.30500      135.31500      -27.71300
C        162.88600      137.15300      -26.78700
H        162.32100      137.85800      -26.17800
C        164.14600      136.78200      -25.96900
H        163.82500      136.12400      -25.16000
C        165.20400      136.01800      -26.77600
H        165.60800      136.65000      -27.56700
H        166.01900      135.71300      -26.12100
H        164.76100      135.13000      -27.22300
C        164.80600      137.99200      -25.29700
H        165.59700      137.65400      -24.62900
H        165.23800      138.66000      -26.04100
H        164.06400      138.53800      -24.71400
C        163.14200      137.89600      -28.11500
O        164.06600      138.68600      -28.25400
N        162.32000      137.66800      -29.13300
H        161.52300      137.05800      -29.01500
H        162.48400      138.15900      -29.99500
