118
2 1
H          6.83900       18.58300     -111.74900
C          6.22600       18.80600     -110.87600
H          5.55400       17.97100     -110.68400
H          5.64600       19.70800     -111.06800
C          7.12200       19.02800     -109.68200
O          8.34000       18.93300     -109.79500
N          6.52800       19.28500     -108.51100
H          5.51800       19.31900     -108.51500
C          7.22200       19.67900     -107.26400
H          7.91600       20.46700     -107.55800
C          6.18200       20.30200     -106.29800
H          5.61600       21.05400     -106.85200
H          5.47800       19.52200     -106.00300
C          6.69500       20.98300     -105.00900
H          5.83300       21.40900     -104.49200
H          7.08800       20.22500     -104.33400
C          7.72800       22.11300     -105.20700
H          8.19500       22.06100     -106.18900
H          7.20300       23.06900     -105.15300
C          8.82600       22.09300     -104.13100
H          9.36600       23.04300     -104.15700
H          8.35500       21.99700     -103.14800
N          9.77800       20.97800     -104.35300
H          9.28800       20.09600     -104.47500
H         10.31700       21.10000     -105.20800
H         10.43300       20.84500     -103.58500
C          8.13500       18.60000     -106.63600
O          8.61600       18.77000     -105.51700
N          8.48000       17.53300     -107.36000
H          8.10300       17.47100     -108.29300
C          9.72600       16.81400     -107.07800
H          9.71600       16.51100     -106.03300
C          9.80700       15.55100     -107.94300
H          8.93200       14.92700     -107.76200
H          9.79900       15.84800     -108.99400
S         11.29500       14.54800     -107.66800
C         10.94800       17.73300     -107.30000
O         11.88800       17.72900     -106.50000
N         10.89400       18.58700     -108.32700
H         10.08500       18.55100     -108.93900
C         11.85700       19.65800     -108.59800
H         12.85300       19.31000     -108.32200
C         11.85900       19.93800     -110.11000
H         10.91200       20.41000     -110.38000
H         12.65600       20.64500     -110.34200
C         12.05800       18.69700     -110.96500
C         13.29500       18.02400     -110.95300
H         14.11600       18.40100     -110.36100
C         13.47000       16.85500     -111.71500
H         14.42200       16.34100     -111.71000
C         12.41100       16.35600     -112.49300
H         12.54900       15.46200     -113.08500
C         11.17600       17.02800     -112.51000
H         10.36600       16.64900     -113.11700
C         11.00000       18.19600     -111.74800
H         10.04900       18.70900     -111.77100
C         11.56600       20.93300     -107.78000
O         10.54700       21.05200     -107.09500
N         12.46300       21.90900     -107.81900
H         13.29100       21.81700     -108.38400
H         12.28800       22.75100     -107.29400
H         14.26500        9.13100     -107.65600
C         14.83200        8.61500     -106.88200
H         15.87700        8.54900     -107.18100
H         14.42800        7.61200     -106.75000
C         14.72000        9.37900     -105.58500
O         14.24900        8.83700     -104.58600
N         15.16700       10.63800     -105.58600
H         15.48100       11.00500     -106.47600
C         15.03100       11.62300     -104.49200
H         14.40500       11.21700     -103.69900
C         16.41400       12.01500     -103.92200
H         16.97800       12.49700     -104.72300
H         16.26900       12.76500     -103.14300
C         17.30800       10.89900     -103.34300
H         17.46700       10.12300     -104.09400
H         18.28100       11.34500     -103.13300
C         16.81100       10.25800     -102.03600
H         17.64700        9.72000     -101.58600
H         16.48800       11.04000     -101.34600
N         15.71200        9.31400     -102.28700
H         15.29800        9.34100     -103.21100
C         15.23200        8.36200     -101.51400
N         15.66100        8.15200     -100.30100
H         16.39400        8.73300      -99.93700
H         15.27900        7.40700      -99.74800
N         14.29100        7.60000     -101.98700
H         13.98700        7.76400     -102.94400
H         13.90100        6.85000     -101.45000
C         14.31700       12.87400     -105.02700
O         14.40900       13.16100     -106.21500
N         13.65500       13.62900     -104.15000
H         13.68500       13.38000     -103.17500
C         12.90900       14.84200     -104.50200
H         13.24300       15.20800     -105.47500
C         11.41100       14.52200     -104.59900
H         11.09900       14.03900     -103.67200
H         10.86000       15.45600     -104.67400
S         10.91300       13.45900     -105.98200
C         13.14400       15.96900     -103.48400
O         13.43300       15.71400     -102.31600
N         12.97100       17.21700     -103.92300
H         12.71100       17.32600     -104.89800
C         13.12100       18.45300     -103.12600
H         13.98000       18.32400     -102.46800
C         13.43000       19.66100     -104.03400
H         13.54100       20.54600     -103.40600
C         14.71700       19.48400     -104.83800
H         14.92100       20.39600     -105.39900
H         15.55100       19.30000     -104.16000
H         14.62900       18.65000     -105.53500
O         12.39700       19.89600     -104.96500
H         12.34200       19.12200     -105.55100
C         11.91300       18.71600     -102.20600
O         11.21600       19.72400     -102.30600
N         11.60800       17.78600     -101.31200
H         12.18000       16.95300     -101.24400
H         10.82900       17.94000     -100.69300
