104
1 1
H         18.48700      152.33000      177.21200
C         17.54500      152.19700      176.68300
H         17.59700      152.70300      175.71900
H         16.73000      152.61400      177.27000
C         17.30400      150.72500      176.45500
O         17.18100      150.28700      175.31600
N         17.20300      149.95600      177.53900
H         17.37000      150.38100      178.44100
C         17.15800      148.48100      177.52600
H         18.10000      148.11900      177.11300
C         17.04400      147.95700      178.96300
H         16.03900      148.14600      179.34300
H         17.22900      146.88100      178.96800
O         17.98600      148.60800      179.79600
H         18.05800      148.12700      180.62700
C         16.02800      147.86500      176.68700
O         16.12700      146.70900      176.28600
N         14.98200      148.63200      176.36500
H         14.99500      149.59000      176.68100
C         13.92700      148.25000      175.42200
H         13.44600      147.34000      175.78500
C         12.88900      149.37700      175.41300
H         12.08300      149.09800      174.73600
H         12.45800      149.46700      176.41100
S         13.51500      151.00000      174.90600
C         14.44600      147.95800      173.99700
O         13.78900      147.24600      173.23500
N         15.63600      148.44900      173.62900
H         16.12900      149.06800      174.26600
C         16.32000      148.06500      172.39600
H         15.66900      148.28400      171.54800
C         17.57800      148.92900      172.25900
H         17.30100      149.98500      172.24700
H         18.25600      148.74500      173.09400
H         18.08600      148.69000      171.32400
C         16.66000      146.55800      172.35500
O         16.60100      145.94000      171.29500
N         16.93700      145.91600      173.48400
H         16.89800      146.39800      174.37200
H         17.13600      144.93000      173.44600
H          9.84400      150.57500      165.33000
C          9.54600      151.48500      165.84700
H          8.47100      151.63200      165.76300
H         10.06700      152.33100      165.40100
C          9.93500      151.38700      167.30200
O         10.72200      152.19100      167.78800
N          9.39000      150.39100      168.00500
H          8.75000      149.77800      167.52700
C          9.63300      150.15700      169.43700
H          9.26700      151.02100      169.99400
C          8.82500      148.93000      169.90100
H          7.76700      149.19300      169.93000
H          8.94400      148.13400      169.16400
C          9.23500      148.39100      171.26300
C          9.04000      149.16800      172.42200
H          8.55200      150.13100      172.35700
C          9.48000      148.69100      173.67200
H          9.33200      149.27700      174.56700
C         10.11600      147.43600      173.76800
O         10.54900      146.98500      174.97400
H         10.80900      146.06300      174.93700
C         10.31100      146.65600      172.60800
H         10.80300      145.69800      172.67900
C          9.86600      147.13300      171.36100
H         10.01700      146.53300      170.47400
C         11.13300      150.00700      169.74800
O         11.71100      148.93200      169.58300
N         11.76600      151.10300      170.17300
H         11.23000      151.95900      170.18700
C         13.19500      151.21900      170.47700
H         13.40100      152.28700      170.55100
C         13.48200      150.63300      171.86800
H         13.28500      149.56200      171.86200
H         14.53900      150.78500      172.09300
S         12.50900      151.41200      173.18600
C         14.14100      150.71700      169.36200
O         15.22400      150.21200      169.65800
N         13.74100      150.84000      168.08300
H         12.82800      151.25400      167.91300
C         14.58600      150.56600      166.90000
H         15.57400      150.98600      167.09600
C         14.75700      149.04700      166.69000
H         15.52500      148.87900      165.93400
H         15.13400      148.61400      167.61700
C         13.47500      148.31000      166.24800
H         12.58900      148.84600      166.59100
H         13.44700      148.27400      165.15800
C         13.41900      146.88200      166.80500
H         12.62600      146.33700      166.29000
H         14.36700      146.37800      166.61200
N         13.10500      146.92800      168.24300
H         12.34600      147.54400      168.51100
C         13.81300      146.50400      169.27000
N         14.87900      145.77200      169.14000
H         15.47500      145.61900      169.94900
H         15.18800      145.49900      168.23000
N         13.42500      146.85300      170.45800
H         13.91800      146.58100      171.29800
H         12.65900      147.51100      170.53900
C         14.03900      151.24100      165.63900
O         12.83500      151.29600      165.43400
N         14.90900      151.71500      164.76300
H         14.54900      152.15400      163.93100
H         15.89600      151.65400      164.94100
