104
1 1
H         16.25100      141.26300      180.94200
C         15.25100      141.48300      181.31200
H         15.26200      142.42100      181.86500
H         14.92100      140.67900      181.96800
C         14.29800      141.59800      180.14600
O         13.34700      140.83000      180.05000
N         14.56500      142.54500      179.24900
H         15.40600      143.09200      179.36600
C         13.76200      142.81200      178.04900
H         13.09600      141.97500      177.86400
C         12.89100      144.05800      178.24900
H         12.27100      143.91900      179.13600
H         13.52700      144.93200      178.39900
O         12.04800      144.27200      177.13100
H         12.56100      144.65500      176.39800
C         14.64100      142.98800      176.81700
O         15.71600      143.58000      176.89700
N         14.14700      142.54600      175.66300
H         13.24700      142.07700      175.66700
C         14.67700      142.95800      174.37000
H         15.74800      142.75300      174.34800
C         14.00100      142.11900      173.28200
H         12.92400      142.28300      173.32400
H         14.35700      142.44900      172.30600
S         14.33800      140.34100      173.43700
C         14.46500      144.47200      174.17200
O         13.46200      145.02900      174.63300
N         15.42200      145.13900      173.52300
H         16.20800      144.62400      173.16000
C         15.42900      146.59200      173.34200
H         15.11100      147.05500      174.27900
C         16.86900      147.03800      173.06000
H         17.52200      146.72500      173.87600
H         17.22100      146.59800      172.12600
H         16.91000      148.12500      172.97600
C         14.46500      147.06200      172.23500
O         14.24100      146.37200      171.24400
N         13.91300      148.26200      172.35900
H         13.30700      148.58700      171.62300
H         14.11000      148.83200      173.16400
H         10.73700      144.62900      174.65600
C          9.67400      144.75600      174.85600
H          9.31800      145.66500      174.37500
H          9.52000      144.82600      175.93200
C          8.91700      143.57100      174.31400
O          8.15600      142.93300      175.03800
N          9.12600      143.26600      173.03700
H          9.78900      143.82500      172.52100
C          8.50100      142.13500      172.33800
H          7.41900      142.20700      172.46300
C          8.79600      142.22000      170.82600
H          8.60200      141.25000      170.36500
H          8.09200      142.92600      170.38400
C         10.20000      142.68300      170.47500
C         11.22600      141.74800      170.23700
H         11.00500      140.68900      170.21200
C         12.54800      142.19100      170.04100
H         13.34800      141.48500      169.86900
C         12.84900      143.56700      170.08400
O         14.13700      143.98100      169.99300
H         14.22700      144.90700      170.28000
C         11.81200      144.50500      170.26700
H         12.03800      145.56100      170.26700
C         10.48900      144.06300      170.44700
H          9.69800      144.78900      170.58000
C          8.92000      140.79400      172.96600
O          8.06400      140.07400      173.47600
N         10.22300      140.50100      173.02500
H         10.87600      141.14600      172.60400
C         10.78000      139.41900      173.84400
H          9.97500      138.72100      174.07900
C         11.80900      138.60600      173.04100
H         12.30800      137.90500      173.71300
H         11.24900      138.00600      172.32300
S         13.08700      139.47700      172.08900
C         11.30500      139.92300      175.20200
O         11.67900      141.08600      175.35000
N         11.31000      139.03100      176.20100
H         11.04500      138.08000      175.97500
C         11.67500      139.25400      177.61500
H         12.48500      139.97800      177.68600
C         10.44700      139.75800      178.40300
H          9.55100      139.31400      177.96800
H         10.50800      139.41300      179.43600
C         10.32000      141.29200      178.44400
H         10.97400      141.67400      179.22600
H         10.63500      141.73200      177.50000
C          8.88600      141.75200      178.73400
H          8.47600      141.18500      179.57100
H          8.92000      142.80500      179.02400
N          8.04800      141.63300      177.52600
H          8.25200      142.28600      176.77400
C          7.14000      140.72900      177.22100
N          6.72300      139.82600      178.06400
H          7.08400      139.83900      178.99900
H          6.01600      139.17100      177.79000
N          6.64700      140.72100      176.02100
H          6.04200      139.99300      175.69700
H          7.04200      141.37200      175.34700
C         12.19600      137.94800      178.22200
O         11.87700      136.87300      177.73100
N         12.96700      138.02500      179.29200
H         13.18900      138.93100      179.68600
H         13.31100      137.17200      179.69900
