99
1 1
H        -43.16400      -10.25200      -15.78200
C        -44.03100      -10.91100      -15.78800
H        -43.83200      -11.77900      -15.16100
H        -44.23000      -11.23400      -16.80900
C        -45.23000      -10.16700      -15.25300
O        -45.10500       -9.01800      -14.83800
N        -46.38600      -10.83200      -15.24100
H        -46.39000      -11.76600      -15.62200
C        -47.68300      -10.25200      -14.84200
H        -47.86600       -9.35700      -15.43900
C        -48.82500      -11.26200      -15.14400
H        -48.51000      -12.25500      -14.81900
C        -50.13000      -10.93600      -14.39400
H        -49.99200      -11.02500      -13.31700
H        -50.45900       -9.92300      -14.63300
H        -50.91700      -11.63600      -14.67800
C        -49.18300      -11.32600      -16.65000
H        -49.45100      -10.32800      -17.00100
H        -50.06200      -11.96200      -16.76900
C        -48.10200      -11.90100      -17.57400
H        -47.27900      -11.19500      -17.68300
H        -47.73300      -12.84700      -17.17700
H        -48.53100      -12.07500      -18.56100
C        -47.67800       -9.79100      -13.37300
O        -48.25300       -8.75400      -13.06500
N        -46.98300      -10.49900      -12.47900
H        -46.47400      -11.30800      -12.80100
C        -46.83500      -10.14100      -11.06400
H        -47.06400       -9.08700      -10.93400
C        -47.81700      -10.95400      -10.20800
H        -47.69400      -12.00800      -10.45900
H        -47.55100      -10.83800       -9.15700
S        -49.57800      -10.54500      -10.35700
C        -45.39400      -10.35100      -10.57600
O        -44.62800      -11.10200      -11.17700
N        -45.02200       -9.68200       -9.48400
H        -45.67500       -8.99800       -9.10700
C        -43.71000       -9.78900       -8.83000
H        -43.39100      -10.83200       -8.82200
C        -42.67300       -8.96400       -9.60600
H        -41.71900       -8.98900       -9.07800
H        -42.53300       -9.39100      -10.60000
O        -43.12000       -7.62100       -9.72100
H        -43.33600       -7.34400       -8.81000
C        -43.78100       -9.27200       -7.38800
O        -44.06400       -8.09900       -7.16400
N        -43.48300      -10.10600       -6.40100
H        -43.51900       -9.75700       -5.45600
H        -43.24600      -11.06600       -6.59100
H        -47.00600       -1.47600      -10.83200
C        -47.33400       -1.86800       -9.87000
H        -48.42200       -1.91100       -9.85200
H        -46.97500       -1.22000       -9.07300
C        -46.77800       -3.25900       -9.68500
O        -46.14300       -3.79300      -10.59000
N        -47.02400       -3.85300       -8.51500
H        -47.52900       -3.32800       -7.81800
C        -46.58600       -5.21800       -8.17600
H        -45.50800       -5.29800       -8.31600
H        -46.80800       -5.41000       -7.12600
C        -47.26200       -6.31900       -9.00800
O        -46.66300       -7.36900       -9.23100
N        -48.45900       -6.04200       -9.53100
H        -48.84900       -5.13200       -9.33600
C        -49.12500       -6.79200      -10.59500
H        -48.41800       -7.49200      -11.02800
C        -50.30900       -7.59100      -10.04200
H        -50.93100       -6.91900       -9.45000
H        -50.91400       -7.94800      -10.87700
S        -49.89000       -9.03000       -9.02200
C        -49.55500       -5.82700      -11.71100
O        -49.78000       -4.64200      -11.45700
N        -49.60100       -6.31900      -12.95300
H        -49.41100       -7.31300      -13.06300
C        -49.57700       -5.52000      -14.18900
H        -49.95300       -4.51600      -13.98700
C        -48.12000       -5.43700      -14.68700
H        -47.74500       -6.45500      -14.81100
H        -48.10300       -4.95600      -15.66700
C        -47.18100       -4.65400      -13.74900
H        -47.40100       -3.58900      -13.83700
H        -47.33200       -4.94500      -12.71300
C        -45.70300       -4.89300      -14.07800
H        -45.54300       -4.72900      -15.14600
H        -45.10200       -4.16000      -13.53600
N        -45.26900       -6.25900      -13.71600
H        -45.34900       -6.98400      -14.41900
C        -44.71900       -6.64300      -12.57900
N        -44.58900       -5.88400      -11.53500
H        -45.07300       -4.99400      -11.47600
H        -44.13500       -6.26900      -10.72200
N        -44.26000       -7.84700      -12.45400
H        -43.80700       -8.10400      -11.59100
H        -44.36800       -8.48700      -13.23200
C        -50.45700       -6.15900      -15.26600
O        -50.46100       -7.37000      -15.43700
N        -51.17200       -5.35500      -16.03600
H        -51.15500       -4.36100      -15.88800
H        -51.74400       -5.77300      -16.75100
