99
1 1
H        -65.99600       -9.59300        7.21100
C        -64.99200       -9.57200        6.78900
H        -64.43900      -10.44300        7.13900
H        -64.47900       -8.66500        7.10500
C        -65.08100       -9.61200        5.28300
O        -64.55400      -10.52600        4.66000
N        -65.71400       -8.59600        4.69400
H        -66.10500       -7.89100        5.30100
C        -66.05700       -8.51500        3.25500
H        -66.73900       -9.33400        3.02400
C        -66.80900       -7.18200        2.98700
H        -66.19900       -6.36600        3.38000
C        -67.03200       -6.91400        1.48600
H        -66.08000       -6.80600        0.96600
H        -67.59800       -7.73100        1.03600
H        -67.57600       -5.98300        1.33600
C        -68.17000       -7.17800        3.73000
H        -68.02600       -7.48600        4.76500
H        -68.84100       -7.90000        3.26200
C        -68.86400       -5.81000        3.77600
H        -68.18100       -5.05800        4.17300
H        -69.19900       -5.51200        2.78300
H        -69.73700       -5.87200        4.42600
C        -64.83700       -8.69600        2.32600
O        -64.97700       -9.20200        1.21200
N        -63.63300       -8.35600        2.79100
H        -63.59300       -7.94800        3.71100
C        -62.36300       -8.57900        2.09100
H        -62.42100       -8.14400        1.09200
C        -61.26300       -7.85700        2.88400
H        -61.55600       -7.77400        3.93100
H        -60.35700       -8.45800        2.87700
S        -60.81600       -6.21300        2.28100
C        -61.95700      -10.05900        1.92300
O        -61.26100      -10.37300        0.96000
N        -62.33600      -10.95100        2.84400
H        -63.01400      -10.65700        3.54000
C        -61.64100      -12.22700        3.09400
H        -60.59700      -11.99800        3.31500
C        -62.23700      -12.88200        4.34400
H        -62.20800      -12.17400        5.17400
H        -63.27600      -13.15600        4.14800
O        -61.50300      -14.03600        4.69400
H        -61.97200      -14.50500        5.39100
C        -61.65900      -13.22300        1.92100
O        -62.70600      -13.53000        1.34800
N        -60.51000      -13.77100        1.55300
H        -59.65300      -13.51400        2.02900
H        -60.50800      -14.47000        0.83000
H        -58.73600      -14.60100        4.48000
C        -58.10100      -13.87200        4.98200
H        -57.24500      -14.37900        5.42300
H        -58.67500      -13.36800        5.75700
C        -57.62400      -12.85600        3.97300
O        -58.01600      -12.91300        2.81200
N        -56.78100      -11.92400        4.41800
H        -56.53300      -11.93500        5.39400
C        -56.24600      -10.84600        3.57800
H        -55.57100      -10.22200        4.16400
H        -55.67900      -11.29000        2.75900
C        -57.34500       -9.95000        2.99300
O        -58.33300       -9.64800        3.66300
N        -57.18500       -9.53900        1.73200
H        -56.36100       -9.82300        1.22200
C        -58.25600       -8.92000        0.95400
H        -59.19500       -9.29800        1.33800
C        -58.25000       -7.39500        1.13500
H        -58.11300       -7.15700        2.19100
H        -57.40600       -6.97900        0.58300
S        -59.77800       -6.59400        0.56400
C        -58.17600       -9.31600       -0.52700
O        -57.08100       -9.42200       -1.07900
N        -59.33000       -9.51300       -1.17600
H        -60.18300       -9.46100       -0.62900
C        -59.45000       -9.84800       -2.60800
H        -58.55700       -9.46800       -3.10900
C        -59.45600      -11.38300       -2.80900
H        -59.61600      -11.61200       -3.86400
H        -58.45600      -11.74000       -2.55600
C        -60.45100      -12.19700       -1.95600
H        -60.12700      -13.23800       -1.95500
H        -60.39800      -11.86000       -0.92300
C        -61.90900      -12.16900       -2.44300
H        -62.12000      -11.25500       -2.98800
H        -62.05500      -12.99200       -3.14600
N        -62.85300      -12.32000       -1.32100
H        -62.83000      -13.19100       -0.81000
C        -63.66500      -11.41100       -0.81000
N        -63.75000      -10.17900       -1.21700
H        -63.06400       -9.81600       -1.87000
H        -64.32700       -9.54400       -0.68700
N        -64.42200      -11.72600        0.19200
H        -64.20100      -12.58100        0.69000
H        -64.94400      -10.98900        0.64300
C        -60.63400       -9.13600       -3.26300
O        -61.67200       -8.93300       -2.64000
N        -60.51800       -8.79200       -4.53400
H        -61.28900       -8.31600       -4.97400
H        -59.66000       -8.96800       -5.03000
