93
0 1
H        -14.74000      -38.16500       38.97900
C        -14.18500      -38.22100       38.04500
H        -14.43700      -39.14600       37.52700
H        -13.11600      -38.19800       38.24800
C        -14.55800      -37.05000       37.16800
O        -15.07300      -37.23600       36.07100
N        -14.29500      -35.83500       37.64600
H        -13.84200      -35.75400       38.54400
C        -14.55900      -34.58900       36.90600
H        -14.39900      -34.79100       35.84700
C        -16.02700      -34.15700       37.06900
H        -16.66800      -35.03600       36.99300
C        -16.33200      -33.44800       38.39000
H        -17.40600      -33.27100       38.45700
H        -16.02600      -34.07400       39.22700
H        -15.81800      -32.48800       38.44200
O        -16.35300      -33.28600       36.01400
H        -16.52300      -33.84900       35.24200
C        -13.57100      -33.47700       37.27200
O        -12.73000      -33.65800       38.15600
N        -13.61900      -32.35500       36.55400
H        -14.37900      -32.28800       35.88700
C        -12.59900      -31.30000       36.51900
H        -11.62800      -31.79600       36.50100
C        -12.75300      -30.54400       35.19100
H        -13.08500      -31.24100       34.42100
H        -13.53200      -29.78900       35.30900
S        -11.25400      -29.73000       34.57600
C        -12.59600      -30.36900       37.75700
O        -12.50400      -29.14900       37.63800
N        -12.73200      -30.93600       38.95900
H        -12.77000      -31.94600       38.98800
C        -12.81000      -30.22800       40.24100
H        -13.44900      -29.35500       40.10500
C        -13.50200      -31.16000       41.24800
H        -14.47900      -31.46000       40.86800
H        -12.88900      -32.04600       41.41800
H        -13.63800      -30.63700       42.19600
C        -11.44000      -29.69700       40.73400
O        -11.01000      -29.96400       41.85100
N        -10.70900      -28.96900       39.90100
H        -11.07500      -28.74700       38.98500
H         -9.81500      -28.62900       40.21500
H        -13.48200      -33.04400       24.48700
C        -12.74400      -33.38900       25.21000
H        -11.91400      -32.68600       25.24800
H        -12.38400      -34.37500       24.92300
C        -13.39300      -33.47100       26.57200
O        -14.57200      -33.17300       26.71100
N        -12.62000      -33.87200       27.57800
H        -11.64400      -34.05700       27.39700
C        -13.06200      -33.97400       28.97200
H        -13.78000      -33.17500       29.16200
C        -13.77300      -35.32200       29.18900
H        -14.53100      -35.45200       28.41600
H        -13.04700      -36.12900       29.07500
C        -14.46300      -35.44300       30.53500
C        -13.97300      -36.32700       31.51700
H        -13.11700      -36.95200       31.30600
C        -14.60100      -36.40100       32.77600
H        -14.23200      -37.08000       33.53000
C        -15.71600      -35.58200       33.05700
O        -16.32400      -35.64300       34.27000
H        -15.94100      -36.35200       34.81700
C        -16.20400      -34.69600       32.07400
H        -17.06400      -34.08300       32.29300
C        -15.58000      -34.63100       30.81400
H        -15.96500      -33.96100       30.05500
C        -11.88400      -33.77400       29.94300
O        -10.72500      -33.79000       29.53100
N        -12.17100      -33.58200       31.23200
H        -13.13700      -33.66300       31.52400
C        -11.18100      -33.33900       32.28100
H        -10.22900      -33.78900       31.99400
C        -10.97400      -31.82300       32.41400
H        -10.42900      -31.46100       31.54100
H        -11.95400      -31.34600       32.40800
S        -10.10800      -31.28000       33.91300
C        -11.62200      -33.97700       33.60800
O        -12.79100      -33.89100       33.99000
N        -10.67500      -34.58300       34.32900
H         -9.72500      -34.58000       33.98500
C        -10.88400      -35.18700       35.64200
H        -11.74300      -34.71900       36.10500
C        -11.20100      -36.67700       35.47100
H        -11.37700      -37.13000       36.44700
H        -12.09600      -36.79700       34.85900
H        -10.36300      -37.18300       34.98900
C         -9.67300      -34.94700       36.55800
O         -8.53100      -35.03100       36.12300
N         -9.90100      -34.65300       37.83100
H        -10.84800      -34.52600       38.16300
H         -9.10900      -34.49500       38.43200
