93
0 1
H         -5.80700       32.10100       62.50200
C         -6.34900       31.43800       61.82900
H         -6.70400       32.00200       60.97000
H         -7.18900       31.00100       62.36300
C         -5.41600       30.33400       61.36400
O         -4.27300       30.30300       61.81000
N         -5.86200       29.42100       60.48000
C         -7.18900       29.37800       59.88300
H         -7.20900       30.02500       59.00500
H         -7.96600       29.67400       60.58800
C         -7.39600       27.92400       59.46400
H         -8.07600       27.84000       58.61600
H         -7.76200       27.34500       60.31400
C         -5.98000       27.47500       59.10600
H         -5.74700       27.80300       58.09100
H         -5.86600       26.39400       59.19200
C         -5.10300       28.21800       60.12100
H         -4.99100       27.60200       61.01400
C         -3.70700       28.49200       59.54500
O         -2.76800       27.74800       59.81700
N         -3.54400       29.57800       58.78700
H         -4.33200       30.20300       58.65900
C         -2.27200       29.97200       58.18500
H         -1.72400       29.06500       57.92500
C         -2.53300       30.74200       56.88600
H         -2.92700       31.72200       57.14600
H         -1.57200       30.89400       56.39400
S         -3.65400       29.98800       55.67300
C         -1.36900       30.78100       59.14200
O         -0.42000       31.42300       58.68700
N         -1.67400       30.81800       60.44600
H         -2.52800       30.36500       60.75700
C         -0.81300       31.41400       61.47900
H         -0.26300       32.23900       61.03000
C         -1.70200       31.98800       62.59600
H         -2.52100       32.55200       62.15000
H         -2.13400       31.16000       63.15900
C         -0.98300       32.91600       63.58500
H         -1.70400       33.17100       64.36300
H         -0.16600       32.38300       64.07000
S         -0.36400       34.48100       62.89700
C          1.37500       34.06500       62.58800
H          1.45100       33.30100       61.81500
H          1.90700       34.95700       62.25800
H          1.83100       33.69200       63.50500
C          0.22700       30.41500       62.02500
O          1.22000       30.80500       62.62700
N          0.04500       29.11500       61.81600
H          0.73500       28.47400       62.16800
H         -0.76900       28.79100       61.31600
H         -4.06600       38.47100       59.17400
C         -4.02900       38.41400       58.08700
H         -3.10600       37.92500       57.77900
H         -4.07200       39.41800       57.67100
C         -5.20800       37.61100       57.59100
O         -5.97300       37.08100       58.39100
N         -5.35000       37.51000       56.26900
H         -4.64700       37.94500       55.69200
C         -6.51800       36.91400       55.59700
H         -7.41400       37.45100       55.91000
H         -6.40700       37.04400       54.52100
C         -6.76400       35.41900       55.85800
O         -7.81600       34.90800       55.49400
N         -5.82700       34.72400       56.50500
H         -4.96400       35.20100       56.74400
C         -5.98300       33.35200       56.99900
H         -7.04800       33.14100       57.10500
C         -5.42900       32.39900       55.92600
H         -5.97400       32.57300       54.99700
H         -4.39000       32.67100       55.74500
S         -5.49500       30.61900       56.27700
C         -5.37600       33.20900       58.41800
O         -4.92300       32.14000       58.82500
N         -5.33800       34.31300       59.17600
H         -5.70300       35.16700       58.77000
C         -4.69600       34.42800       60.49200
H         -4.49600       33.43400       60.89300
C         -3.35000       35.16400       60.34900
H         -3.49900       36.14500       59.89900
H         -2.96100       35.32400       61.35500
C         -2.28100       34.37700       59.57000
H         -1.30100       34.70300       59.92000
H         -2.37800       33.32300       59.81100
C         -2.29100       34.53400       58.05000
O         -3.07800       35.24600       57.43900
N         -1.40200       33.85000       57.36500
H         -1.37400       33.98800       56.37300
H         -0.78500       33.19600       57.84200
C         -5.57900       35.14700       61.52700
O         -5.53600       34.82400       62.70600
N         -6.41500       36.09700       61.12500
H         -6.99100       36.54600       61.81700
H         -6.42500       36.39700       60.15900
